*SPEF "IEEE 1481-1998"
*DESIGN "DualCtrlVCO_ihp_v2"
*DATE "emirtool"
*VENDOR "emirtool"
*PROGRAM "emirtool"
*VERSION "1.0"
*DESIGN_FLOW "EXTRACTION"
*DIVIDER /
*DELIMITER :
*BUS_DELIMITER [ ]
*T_UNIT 1 PS
*C_UNIT 1 FF
*R_UNIT 1 OHM
*L_UNIT 1 HENRY

*NAME_MAP
*1 VSS
*2 $2
*3 $3
*4 $4
*5 $5
*6 VFINE
*7 $7
*8 $8
*9 $9
*10 $10
*11 $11
*12 $12
*13 VCO_CLK
*14 VREG
*15 VCOARSE

*D_NET *1 23.2482
*CAP
1 *1 0.203385
2 *1:2 0.203385
3 *1:3 0.203385
4 *1:4 0.203385
5 *1:5 0.203385
6 *1:6 0.323217
7 *1:7 0.221253
8 *1:8 0.528758
9 *1:9 0.595607
10 *1:10 0.528758
11 *1:11 0.595607
12 *1:12 0.528758
13 *1:13 0.595607
14 *1:14 0.528758
15 *1:15 0.595607
16 *1:16 0.528758
17 *1:17 0.595607
18 *1:18 0.528758
19 *1:19 0.595607
20 *1:20 0.528758
21 *1:21 0.595607
22 *1:22 0.528758
23 *1:23 0.595607
24 *1:24 0.606635
25 *1:25 0.606635
26 *1:26 0.606635
27 *1:27 0.606635
28 *1:28 0.606635
29 *1:29 0.26672
30 *1:30 0.5556
31 *1:31 0.6184
32 *1:32 0.5556
33 *1:33 0.6184
34 *1:34 0.5556
35 *1:35 0.6184
36 *1:36 0.5556
37 *1:37 0.6184
38 *1:38 0.5556
39 *1:39 0.6184
40 *1:40 0.5556
41 *1:41 0.6184
42 *1:42 0.5556
43 *1:43 0.6184
44 *1:44 0.5556
45 *1:45 0.6184
*RES
1 *1 *1:46 0.28755
2 *1:9 *1:46 0.0389571
3 *1:2 *1:47 0.28755
4 *1:12 *1:47 0.04545
5 *1:3 *1:48 0.28755
6 *1:15 *1:48 0.0389571
7 *1:4 *1:49 0.28755
8 *1:17 *1:49 0.0389571
9 *1:4 *1:50 0.28755
10 *1:18 *1:50 0.04545
11 *1:5 *1:51 0.28755
12 *1:20 *1:51 0.04545
13 *1:5 *1:52 0.28755
14 *1:21 *1:52 0.0389571
15 *1:6 *1:53 0.92925
16 *1:22 *1:53 0.04545
17 *1:7 *1:54 0.0233911
18 *1:8 *1:54 0.100248
19 *1:7 *1:55 0.194786
20 *1:24 *1:55 0.96255
21 *1:8 *1:56 0.100248
22 *1:9 *1:56 0.116955
23 *1:9 *1:57 0.116955
24 *1:10 *1:57 0.100248
25 *1:10 *1:58 0.100248
26 *1:11 *1:58 0.116955
27 *1:10 *1:59 0.04545
28 *1:25 *1:59 0.96255
29 *1:11 *1:60 0.116955
30 *1:12 *1:60 0.100248
31 *1:12 *1:61 0.100248
32 *1:13 *1:61 0.116955
33 *1:13 *1:62 0.116955
34 *1:14 *1:62 0.100248
35 *1:13 *1:63 0.0389571
36 *1:26 *1:63 0.96255
37 *1:14 *1:64 0.100248
38 *1:15 *1:64 0.116955
39 *1:15 *1:65 0.116955
40 *1:16 *1:65 0.100248
41 *1:16 *1:66 0.100248
42 *1:17 *1:66 0.116955
43 *1:16 *1:67 0.04545
44 *1:27 *1:67 0.96255
45 *1:17 *1:68 0.116955
46 *1:18 *1:68 0.100248
47 *1:18 *1:69 0.100248
48 *1:19 *1:69 0.116955
49 *1:19 *1:70 0.116955
50 *1:20 *1:70 0.100248
51 *1:19 *1:71 0.0389571
52 *1:28 *1:71 0.96255
53 *1:20 *1:72 0.100248
54 *1:21 *1:72 0.116955
55 *1:21 *1:73 0.116955
56 *1:22 *1:73 0.100248
57 *1:22 *1:74 0.100248
58 *1:23 *1:74 0.116955
59 *1:29 *1:75 0.018025
60 *1:30 *1:75 0.07725
61 *1:30 *1:76 0.07725
62 *1:31 *1:76 0.090125
63 *1:31 *1:77 0.090125
64 *1:32 *1:77 0.07725
65 *1:32 *1:78 0.07725
66 *1:33 *1:78 0.090125
67 *1:33 *1:79 0.090125
68 *1:34 *1:79 0.07725
69 *1:34 *1:80 0.07725
70 *1:35 *1:80 0.090125
71 *1:35 *1:81 0.090125
72 *1:36 *1:81 0.07725
73 *1:36 *1:82 0.07725
74 *1:37 *1:82 0.090125
75 *1:37 *1:83 0.090125
76 *1:38 *1:83 0.07725
77 *1:38 *1:84 0.07725
78 *1:39 *1:84 0.090125
79 *1:39 *1:85 0.090125
80 *1:40 *1:85 0.07725
81 *1:40 *1:86 0.07725
82 *1:41 *1:86 0.090125
83 *1:41 *1:87 0.090125
84 *1:42 *1:87 0.07725
85 *1:42 *1:88 0.07725
86 *1:43 *1:88 0.090125
87 *1:43 *1:89 0.090125
88 *1:44 *1:89 0.07725
89 *1:44 *1:90 0.07725
90 *1:45 *1:90 0.090125
91 *1:15 *1:37 0.833333
92 *1:19 *1:41 0.833333
93 *1:20 *1:42 0.952381
94 *1:21 *1:43 0.740741
95 *1:22 *1:44 0.952381
96 *1:23 *1:45 0.833333
97 *1:18 *1:40 0.833333
98 *1:16 *1:38 0.833333
99 *1:17 *1:39 0.833333
100 *1:11 *1:33 0.740741
101 *1:12 *1:34 0.952381
102 *1:13 *1:35 0.740741
103 *1:14 *1:36 0.952381
104 *1:8 *1:30 0.952381
105 *1:9 *1:31 0.740741
106 *1:10 *1:32 0.952381
107 *1:7 *1:29 6.66667
*END

*D_NET *2 5.9269
*CAP
1 *2 0.025222
2 *2:2 0.0455126
3 *2:3 0.025222
4 *2:4 0.0620569
5 *2:5 0.0455126
6 *2:6 0.0252219
7 *2:7 0.0331843
8 *2:8 0.0331843
9 *2:9 0.430407
10 *2:10 0.0455126
11 *2:11 0.025222
12 *2:12 0.0455126
13 *2:13 0.372023
14 *2:14 0.372023
15 *2:15 0.0455126
16 *2:16 0.0252219
17 *2:17 0.0357012
18 *2:18 0.0357012
19 *2:19 0.0357012
20 *2:20 0.0357012
21 *2:21 0.0357012
22 *2:22 0.055088
23 *2:23 0.1109
24 *2:24 0.1109
25 *2:25 0.34345
26 *2:26 0.0220659
27 *2:27 0.0609751
28 *2:28 0.0299948
29 *2:29 0.0715687
30 *2:30 0.0299948
31 *2:31 0.0563249
32 *2:32 0.152056
33 *2:33 0.702597
34 *2:34 0.702597
35 *2:35 0.0643131
36 *2:36 0.741461
37 *2:37 0.0627818
38 *2:38 0.774773
*RES
1 *2 *2:39 0.019125
2 *2:2 *2:39 0.0675
3 *2:2 *2:40 0.0675
4 *2:3 *2:40 0.019125
5 *2:4 *2:41 0.131625
6 *2:5 *2:41 0.0675
7 *2:5 *2:42 0.0675
8 *2:6 *2:42 0.019125
9 *2:7 *2:43 0.03375
10 *2:8 *2:43 0.03375
11 *2:9 *2:44 1.25662
12 *2:10 *2:44 0.0675
13 *2:10 *2:45 0.0675
14 *2:11 *2:45 0.019125
15 *2:13 *2:46 1.07831
16 *2:14 *2:46 1.07831
17 *2:13 *2:47 1.07831
18 *2:15 *2:47 0.0675
19 *2:15 *2:48 0.0675
20 *2:16 *2:48 0.019125
21 *2:17 *2:49 0.0101439
22 *2:22 *2:49 0.02575
23 *2:18 *2:50 0.0101439
24 *2:23 *2:50 0.0103
25 *2:19 *2:51 0.0101439
26 *2:24 *2:51 0.0103
27 *2:19 *2:52 0.0101439
28 *2:25 *2:52 0.00294286
29 *2:20 *2:53 0.0101439
30 *2:22 *2:53 0.02575
31 *2:21 *2:54 0.0101439
32 *2:24 *2:54 0.0103
33 *2:21 *2:55 0.0101439
34 *2:25 *2:55 0.00294286
35 *2:22 *2:56 0.103
36 *2:23 *2:56 0.2575
37 *2:23 *2:57 0.2575
38 *2:24 *2:57 0.2575
39 *2:23 *2:58 0.0103
40 *2:33 *2:58 1.1014
41 *2:24 *2:59 0.2575
42 *2:25 *2:59 0.90125
43 *2:25 *2:60 0.90125
44 *2:26 *2:60 0.0115875
45 *2:25 *2:61 0.00294286
46 *2:32 *2:61 0.200538
47 *2:26 *2:62 0.0115875
48 *2:27 *2:62 0.0515
49 *2:28 *2:63 0.0515
50 *2:29 *2:63 0.191955
51 *2:28 *2:64 0.0515
52 *2:30 *2:64 0.0515
53 *2:29 *2:65 0.0138171
54 *2:31 *2:65 0.0188833
55 *2:29 *2:66 0.0138171
56 *2:32 *2:66 0.200538
57 *2:30 *2:67 0.0515
58 *2:31 *2:67 0.140455
59 *2:33 *2:68 1.1014
60 *2:34 *2:68 1.1014
61 *2:35 *2:69 0.0569621
62 *2:36 *2:69 1.16499
63 *2:37 *2:70 0.0554015
64 *2:38 *2:70 1.24302
65 *2:10 *2:22 20
66 *2:2 *2:23 20
67 *2:5 *2:25 20
68 *2:15 *2:27 20
69 *2:7 *2:28 20
70 *2:12 *2:35 20
71 *2:34 *2:37 20
72 *2:36 *2:38 20
*END

*D_NET *3 6.22497
*CAP
1 *3 0.0252219
2 *3:2 0.0249654
3 *3:3 0.0414032
4 *3:4 0.0252219
5 *3:5 0.0620569
6 *3:6 0.036173
7 *3:7 0.0301956
8 *3:8 0.0252219
9 *3:9 0.0455126
10 *3:10 0.430407
11 *3:11 0.0283277
12 *3:12 0.0380409
13 *3:13 0.0252219
14 *3:14 0.0257126
15 *3:15 0.040656
16 *3:16 0.372023
17 *3:17 0.372023
18 *3:18 0.0324371
19 *3:19 0.0339315
20 *3:20 0.025222
21 *3:21 0.0357012
22 *3:22 0.0357012
23 *3:23 0.0357012
24 *3:24 0.0357012
25 *3:25 0.0357012
26 *3:26 0.027182
27 *3:27 0.1109
28 *3:28 0.15741
29 *3:29 0.329032
30 *3:30 0.0442848
31 *3:31 0.0461923
32 *3:32 0.0484721
33 *3:33 0.0530914
34 *3:34 0.0484721
35 *3:35 0.0378476
36 *3:36 0.152056
37 *3:37 0.728109
38 *3:38 0.728109
39 *3:39 0.0357012
40 *3:40 0.0643131
41 *3:41 0.792486
42 *3:42 0.0357012
43 *3:43 0.0347138
44 *3:44 0.778048
45 *3:45 0.0543614
*RES
1 *3 *3:46 0.019125
2 *3:2 *3:46 0.405
3 *3 *3:47 0.019125
4 *3:3 *3:47 0.081
5 *3:2 *3:48 0.01125
6 *3:3 *3:48 0.05625
7 *3:2 *3:49 0.405
8 *3:4 *3:49 0.019125
9 *3:3 *3:50 0.081
10 *3:4 *3:50 0.019125
11 *3:5 *3:51 0.131625
12 *3:6 *3:51 0.108659
13 *3:5 *3:52 0.131625
14 *3:7 *3:52 0.1782
15 *3:6 *3:53 0.0419318
16 *3:7 *3:53 0.0255682
17 *3:6 *3:54 0.108659
18 *3:8 *3:54 0.019125
19 *3:7 *3:55 0.1782
20 *3:8 *3:55 0.019125
21 *3:10 *3:56 1.25663
22 *3:11 *3:56 0.22275
23 *3:10 *3:57 1.25663
24 *3:12 *3:57 0.0968478
25 *3:11 *3:58 0.0204545
26 *3:12 *3:58 0.0470455
27 *3:11 *3:59 0.22275
28 *3:13 *3:59 0.019125
29 *3:12 *3:60 0.0968478
30 *3:13 *3:60 0.019125
31 *3:14 *3:61 0.0132955
32 *3:15 *3:61 0.0542045
33 *3:16 *3:62 1.07831
34 *3:17 *3:62 1.07831
35 *3:16 *3:63 1.07831
36 *3:18 *3:63 0.14371
37 *3:16 *3:64 1.07831
38 *3:19 *3:64 0.127286
39 *3:18 *3:65 0.0317045
40 *3:19 *3:65 0.0357955
41 *3:18 *3:66 0.14371
42 *3:20 *3:66 0.019125
43 *3:19 *3:67 0.127286
44 *3:20 *3:67 0.019125
45 *3:21 *3:68 0.0101439
46 *3:26 *3:68 0.103
47 *3:21 *3:69 0.0101439
48 *3:27 *3:69 0.0103
49 *3:22 *3:70 0.0101439
50 *3:27 *3:70 0.0103
51 *3:22 *3:71 0.0101439
52 *3:28 *3:71 0.00686667
53 *3:23 *3:72 0.0101439
54 *3:28 *3:72 0.00686667
55 *3:23 *3:73 0.0101439
56 *3:29 *3:73 0.00307922
57 *3:24 *3:74 0.0101439
58 *3:26 *3:74 0.103
59 *3:24 *3:75 0.0101439
60 *3:27 *3:75 0.0103
61 *3:25 *3:76 0.0101439
62 *3:28 *3:76 0.00686667
63 *3:25 *3:77 0.0101439
64 *3:29 *3:77 0.00307922
65 *3:26 *3:78 0.02575
66 *3:27 *3:78 0.2575
67 *3:27 *3:79 0.2575
68 *3:28 *3:79 0.38625
69 *3:27 *3:80 0.0103
70 *3:37 *3:80 1.14314
71 *3:28 *3:81 0.38625
72 *3:29 *3:81 0.861337
73 *3:28 *3:82 0.00686667
74 *3:37 *3:82 1.14314
75 *3:29 *3:83 0.861338
76 *3:30 *3:83 0.0241894
77 *3:29 *3:84 0.00307922
78 *3:36 *3:84 0.200538
79 *3:30 *3:85 0.0241894
80 *3:31 *3:85 0.0273106
81 *3:32 *3:86 0.113924
82 *3:33 *3:86 0.12953
83 *3:32 *3:87 0.0232808
84 *3:34 *3:87 0.0232808
85 *3:33 *3:88 0.0204759
86 *3:35 *3:88 0.03399
87 *3:33 *3:89 0.0204759
88 *3:36 *3:89 0.200538
89 *3:34 *3:90 0.113924
90 *3:35 *3:90 0.0780303
91 *3:37 *3:91 1.14314
92 *3:38 *3:91 1.14314
93 *3:38 *3:92 1.14314
94 *3:39 *3:92 0.0101439
95 *3:40 *3:93 0.0569621
96 *3:41 *3:93 1.24848
97 *3:41 *3:94 1.24848
98 *3:42 *3:94 0.0101439
99 *3:43 *3:95 0.00858333
100 *3:44 *3:95 1.24848
101 *3:44 *3:96 1.24848
102 *3:45 *3:96 0.0413561
103 *3:12 *3:27 20
104 *3:3 *3:28 20
105 *3:6 *3:28 20
106 *3:19 *3:31 20
107 *3:9 *3:32 20
108 *3:15 *3:40 20
109 *3:38 *3:44 20
110 *3:41 *3:45 20
*END

*D_NET *4 6.2977
*CAP
1 *4 0.0252219
2 *4:2 0.0455126
3 *4:3 0.0252219
4 *4:4 0.062057
5 *4:5 0.0455126
6 *4:6 0.025222
7 *4:7 0.0257126
8 *4:8 0.040656
9 *4:9 0.430407
10 *4:10 0.0432711
11 *4:11 0.0230975
12 *4:12 0.025222
13 *4:13 0.040656
14 *4:14 0.0257126
15 *4:15 0.372023
16 *4:16 0.372023
17 *4:17 0.0455126
18 *4:18 0.025222
19 *4:19 0.0357012
20 *4:20 0.0357012
21 *4:21 0.0357012
22 *4:22 0.0357012
23 *4:23 0.0357012
24 *4:24 0.045786
25 *4:25 0.1109
26 *4:26 0.15741
27 *4:27 0.310428
28 *4:28 0.0609751
29 *4:29 0.0207561
30 *4:30 0.0808073
31 *4:31 0.0207561
32 *4:32 0.0655636
33 *4:33 0.152056
34 *4:34 0.751952
35 *4:35 0.751952
36 *4:36 0.0452385
37 *4:37 0.0643131
38 *4:38 0.434837
39 *4:39 0.434837
40 *4:40 0.0452385
41 *4:41 0.0534258
42 *4:42 0.778048
43 *4:43 0.0356494
*RES
1 *4 *4:44 0.019125
2 *4:2 *4:44 0.0675
3 *4:2 *4:45 0.0675
4 *4:3 *4:45 0.019125
5 *4:4 *4:46 0.131625
6 *4:5 *4:46 0.0675
7 *4:5 *4:47 0.0675
8 *4:6 *4:47 0.019125
9 *4:7 *4:48 0.0132955
10 *4:8 *4:48 0.0542045
11 *4:9 *4:49 1.25662
12 *4:10 *4:49 0.07425
13 *4:9 *4:50 1.25662
14 *4:11 *4:50 0.7425
15 *4:10 *4:51 0.0613636
16 *4:11 *4:51 0.00613636
17 *4:10 *4:52 0.07425
18 *4:12 *4:52 0.019125
19 *4:11 *4:53 0.7425
20 *4:12 *4:53 0.019125
21 *4:13 *4:54 0.0542045
22 *4:14 *4:54 0.0132955
23 *4:15 *4:55 1.07831
24 *4:16 *4:55 1.07831
25 *4:15 *4:56 1.07831
26 *4:17 *4:56 0.0675
27 *4:17 *4:57 0.0675
28 *4:18 *4:57 0.019125
29 *4:19 *4:58 0.0101439
30 *4:24 *4:58 0.0343333
31 *4:19 *4:59 0.0101439
32 *4:25 *4:59 0.0103
33 *4:20 *4:60 0.0101439
34 *4:25 *4:60 0.0103
35 *4:20 *4:61 0.0101439
36 *4:26 *4:61 0.00686667
37 *4:21 *4:62 0.0101439
38 *4:26 *4:62 0.00686667
39 *4:22 *4:63 0.0101439
40 *4:24 *4:63 0.0343333
41 *4:22 *4:64 0.0101439
42 *4:25 *4:64 0.0103
43 *4:23 *4:65 0.0101439
44 *4:26 *4:65 0.00686667
45 *4:24 *4:66 0.07725
46 *4:25 *4:66 0.2575
47 *4:25 *4:67 0.2575
48 *4:26 *4:67 0.38625
49 *4:25 *4:68 0.0103
50 *4:34 *4:68 1.18216
51 *4:26 *4:69 0.38625
52 *4:27 *4:69 0.809837
53 *4:26 *4:70 0.00686667
54 *4:34 *4:70 1.18216
55 *4:27 *4:71 0.809838
56 *4:28 *4:71 0.0515
57 *4:27 *4:72 0.00327504
58 *4:33 *4:72 0.200538
59 *4:29 *4:73 0.0202879
60 *4:30 *4:73 0.223167
61 *4:29 *4:74 0.130731
62 *4:31 *4:74 0.130731
63 *4:30 *4:75 0.0118846
64 *4:32 *4:75 0.01545
65 *4:30 *4:76 0.0118846
66 *4:33 *4:76 0.200538
67 *4:31 *4:77 0.0202879
68 *4:32 *4:77 0.171667
69 *4:34 *4:78 1.18216
70 *4:35 *4:78 1.18216
71 *4:35 *4:79 1.18216
72 *4:36 *4:79 0.02575
73 *4:37 *4:80 0.0569621
74 *4:38 *4:80 0.663258
75 *4:38 *4:81 0.663258
76 *4:39 *4:81 0.663258
77 *4:39 *4:82 0.663258
78 *4:40 *4:82 0.02575
79 *4:41 *4:83 0.0397955
80 *4:42 *4:83 1.24848
81 *4:42 *4:84 1.24848
82 *4:43 *4:84 0.0101439
83 *4:10 *4:24 20
84 *4:2 *4:25 20
85 *4:5 *4:26 20
86 *4:17 *4:28 20
87 *4:8 *4:30 20
88 *4:13 *4:37 20
89 *4:35 *4:41 20
90 *4:39 *4:42 20
*END

*D_NET *5 6.34385
*CAP
1 *5 0.0252219
2 *5:2 0.0455126
3 *5:3 0.0252219
4 *5:4 0.062057
5 *5:5 0.0287013
6 *5:6 0.0376673
7 *5:7 0.025222
8 *5:8 0.040656
9 *5:9 0.0257126
10 *5:10 0.430407
11 *5:11 0.0455126
12 *5:12 0.025222
13 *5:13 0.0455126
14 *5:14 0.372023
15 *5:15 0.372023
16 *5:16 0.0455126
17 *5:17 0.0252219
18 *5:18 0.0357012
19 *5:19 0.0357012
20 *5:20 0.0357012
21 *5:21 0.0357012
22 *5:22 0.0357012
23 *5:23 0.1109
24 *5:24 0.15741
25 *5:25 0.338334
26 *5:26 0.0609751
27 *5:27 0.0392334
28 *5:28 0.06233
29 *5:29 0.0392334
30 *5:30 0.0470863
31 *5:31 0.152056
32 *5:32 0.775796
33 *5:33 0.775796
34 *5:34 0.0547758
35 *5:35 0.0643131
36 *5:36 0.45868
37 *5:37 0.45868
38 *5:38 0.0547758
39 *5:39 0.773838
40 *5:40 0.0637174
*RES
1 *5 *5:41 0.019125
2 *5:2 *5:41 0.0675
3 *5:2 *5:42 0.0675
4 *5:3 *5:42 0.019125
5 *5:4 *5:43 0.131625
6 *5:5 *5:43 0.212143
7 *5:4 *5:44 0.131625
8 *5:6 *5:44 0.099
9 *5:5 *5:45 0.0214773
10 *5:6 *5:45 0.0460227
11 *5:5 *5:46 0.212143
12 *5:7 *5:46 0.019125
13 *5:6 *5:47 0.099
14 *5:7 *5:47 0.019125
15 *5:8 *5:48 0.0542045
16 *5:9 *5:48 0.0132955
17 *5:10 *5:49 1.25662
18 *5:11 *5:49 0.0675
19 *5:11 *5:50 0.0675
20 *5:12 *5:50 0.019125
21 *5:14 *5:51 1.07831
22 *5:15 *5:51 1.07831
23 *5:14 *5:52 1.07831
24 *5:16 *5:52 0.0675
25 *5:16 *5:53 0.0675
26 *5:17 *5:53 0.019125
27 *5:18 *5:54 0.0101439
28 *5:23 *5:54 0.0103
29 *5:19 *5:55 0.0101439
30 *5:24 *5:55 0.00686667
31 *5:20 *5:56 0.0101439
32 *5:24 *5:56 0.00686667
33 *5:20 *5:57 0.0101439
34 *5:25 *5:57 0.00298984
35 *5:21 *5:58 0.0101439
36 *5:23 *5:58 0.0103
37 *5:22 *5:59 0.0101439
38 *5:24 *5:59 0.00686667
39 *5:22 *5:60 0.0101439
40 *5:25 *5:60 0.00298984
41 *5:23 *5:61 0.2575
42 *5:24 *5:61 0.38625
43 *5:24 *5:62 0.38625
44 *5:25 *5:62 0.887087
45 *5:24 *5:63 0.00686667
46 *5:32 *5:63 1.22117
47 *5:25 *5:64 0.887088
48 *5:26 *5:64 0.0515
49 *5:25 *5:65 0.00298984
50 *5:31 *5:65 0.200538
51 *5:27 *5:66 0.0827121
52 *5:28 *5:66 0.160742
53 *5:27 *5:67 0.032066
54 *5:29 *5:67 0.032066
55 *5:28 *5:68 0.0165
56 *5:30 *5:68 0.0242786
57 *5:28 *5:69 0.0165
58 *5:31 *5:69 0.200538
59 *5:29 *5:70 0.0827121
60 *5:30 *5:70 0.109242
61 *5:32 *5:71 1.22117
62 *5:33 *5:71 1.22117
63 *5:33 *5:72 1.22117
64 *5:34 *5:72 0.0413561
65 *5:35 *5:73 0.0569621
66 *5:36 *5:73 0.702273
67 *5:36 *5:74 0.702273
68 *5:37 *5:74 0.702273
69 *5:37 *5:75 0.702273
70 *5:38 *5:75 0.0413561
71 *5:39 *5:76 1.24146
72 *5:40 *5:76 0.0569621
73 *5:11 *5:23 20
74 *5:2 *5:24 20
75 *5:6 *5:25 20
76 *5:16 *5:26 20
77 *5:8 *5:27 20
78 *5:13 *5:35 20
79 *5:34 *5:39 20
80 *5:38 *5:40 20
*END

*D_NET *6 11.8716
*CAP
1 *6 0.0202244
2 *6:2 0.0202244
3 *6:3 0.0553031
4 *6:4 0.0403112
5 *6:5 0.0239886
6 *6:6 0.0804745
7 *6:7 0.0241169
8 *6:8 0.0202244
9 *6:9 0.0202244
10 *6:10 0.0553031
11 *6:11 0.0443919
12 *6:12 0.0804744
13 *6:13 0.0241169
14 *6:14 0.0202244
15 *6:15 0.0202244
16 *6:16 0.0553031
17 *6:17 0.0328919
18 *6:18 0.031408
19 *6:19 0.0804745
20 *6:20 0.0241169
21 *6:21 0.0202244
22 *6:22 0.0202244
23 *6:23 0.0553031
24 *6:24 0.0443919
25 *6:25 0.0804745
26 *6:26 0.0241169
27 *6:27 0.0202244
28 *6:28 0.0202244
29 *6:29 0.0553031
30 *6:30 0.0254725
31 *6:31 0.0388273
32 *6:32 0.0804745
33 *6:33 0.0241169
34 *6:34 0.0452385
35 *6:35 0.625583
36 *6:36 0.625583
37 *6:37 0.0547758
38 *6:38 0.0452385
39 *6:39 0.625583
40 *6:40 0.625583
41 *6:41 0.0547758
42 *6:42 0.0452385
43 *6:43 0.625583
44 *6:44 0.625583
45 *6:45 0.0547758
46 *6:46 0.0452385
47 *6:47 0.625583
48 *6:48 0.625583
49 *6:49 0.0547758
50 *6:50 0.0452385
51 *6:51 0.625583
52 *6:52 0.625583
53 *6:53 0.0547758
54 *6:54 0.0679276
55 *6:55 0.450588
56 *6:56 0.450588
57 *6:57 0.473978
58 *6:58 0.473978
59 *6:59 0.473978
60 *6:60 0.473978
61 *6:61 0.450588
62 *6:62 0.450588
63 *6:63 0.0660564
*RES
1 *6 *6:64 1.36125
2 *6:2 *6:64 1.36125
3 *6 *6:65 0.00334711
4 *6:3 *6:65 0.0245975
5 *6 *6:66 0.00334711
6 *6:4 *6:66 0.0773182
7 *6:2 *6:67 0.00334711
8 *6:3 *6:67 0.0245975
9 *6:2 *6:68 0.00334711
10 *6:4 *6:68 0.0773182
11 *6:2 *6:69 0.00334711
12 *6:5 *6:69 0.386591
13 *6:3 *6:70 0.0245975
14 *6:7 *6:70 0.01575
15 *6:4 *6:71 0.0589286
16 *6:5 *6:71 0.0117857
17 *6:4 *6:72 0.0773182
18 *6:6 *6:72 0.187875
19 *6:5 *6:73 0.386591
20 *6:6 *6:73 0.187875
21 *6:8 *6:74 1.36125
22 *6:9 *6:74 1.36125
23 *6:8 *6:75 0.00334711
24 *6:10 *6:75 0.0245975
25 *6:8 *6:76 0.00334711
26 *6:11 *6:76 0.0644318
27 *6:9 *6:77 0.00334711
28 *6:10 *6:77 0.0245975
29 *6:9 *6:78 0.00334711
30 *6:11 *6:78 0.0644318
31 *6:10 *6:79 0.0245975
32 *6:13 *6:79 0.01575
33 *6:11 *6:80 0.0644318
34 *6:12 *6:80 0.187875
35 *6:14 *6:81 1.36125
36 *6:15 *6:81 1.36125
37 *6:14 *6:82 0.00334711
38 *6:16 *6:82 0.0245975
39 *6:14 *6:83 0.00334711
40 *6:17 *6:83 0.1215
41 *6:15 *6:84 0.00334711
42 *6:16 *6:84 0.0245975
43 *6:15 *6:85 0.00334711
44 *6:17 *6:85 0.1215
45 *6:15 *6:86 0.00334711
46 *6:18 *6:86 0.137177
47 *6:16 *6:87 0.0245975
48 *6:20 *6:87 0.01575
49 *6:17 *6:88 0.0375
50 *6:18 *6:88 0.0332143
51 *6:17 *6:89 0.1215
52 *6:19 *6:89 0.187875
53 *6:18 *6:90 0.137177
54 *6:19 *6:90 0.187875
55 *6:21 *6:91 1.36125
56 *6:22 *6:91 1.36125
57 *6:21 *6:92 0.00334711
58 *6:23 *6:92 0.0245975
59 *6:21 *6:93 0.00334711
60 *6:24 *6:93 0.0644318
61 *6:22 *6:94 0.00334711
62 *6:23 *6:94 0.0245975
63 *6:22 *6:95 0.00334711
64 *6:24 *6:95 0.0644318
65 *6:23 *6:96 0.0245975
66 *6:26 *6:96 0.01575
67 *6:24 *6:97 0.0644318
68 *6:25 *6:97 0.187875
69 *6:27 *6:98 1.36125
70 *6:28 *6:98 1.36125
71 *6:27 *6:99 0.00334711
72 *6:29 *6:99 0.0245975
73 *6:27 *6:100 0.00334711
74 *6:30 *6:100 0.2835
75 *6:28 *6:101 0.00334711
76 *6:29 *6:101 0.0245975
77 *6:28 *6:102 0.00334711
78 *6:30 *6:102 0.2835
79 *6:28 *6:103 0.00334711
80 *6:31 *6:103 0.0833824
81 *6:29 *6:104 0.0245975
82 *6:33 *6:104 0.01575
83 *6:30 *6:105 0.0160714
84 *6:31 *6:105 0.0546429
85 *6:30 *6:106 0.2835
86 *6:32 *6:106 0.187875
87 *6:31 *6:107 0.0833824
88 *6:32 *6:107 0.187875
89 *6:34 *6:108 0.02575
90 *6:35 *6:108 0.975379
91 *6:35 *6:109 0.975379
92 *6:36 *6:109 0.975379
93 *6:36 *6:110 0.975379
94 *6:37 *6:110 0.0413561
95 *6:38 *6:111 0.02575
96 *6:39 *6:111 0.975379
97 *6:39 *6:112 0.975379
98 *6:40 *6:112 0.975379
99 *6:40 *6:113 0.975379
100 *6:41 *6:113 0.0413561
101 *6:42 *6:114 0.02575
102 *6:43 *6:114 0.975379
103 *6:43 *6:115 0.975379
104 *6:44 *6:115 0.975379
105 *6:44 *6:116 0.975379
106 *6:45 *6:116 0.0413561
107 *6:46 *6:117 0.02575
108 *6:47 *6:117 0.975379
109 *6:47 *6:118 0.975379
110 *6:48 *6:118 0.975379
111 *6:48 *6:119 0.975379
112 *6:49 *6:119 0.0413561
113 *6:50 *6:120 0.02575
114 *6:51 *6:120 0.975379
115 *6:51 *6:121 0.975379
116 *6:52 *6:121 0.975379
117 *6:52 *6:122 0.975379
118 *6:53 *6:122 0.0413561
119 *6:54 *6:123 0.0639848
120 *6:55 *6:123 0.702273
121 *6:55 *6:124 0.702273
122 *6:56 *6:124 0.702273
123 *6:56 *6:125 0.702273
124 *6:57 *6:125 0.741288
125 *6:57 *6:126 0.741288
126 *6:58 *6:126 0.741288
127 *6:58 *6:127 0.741288
128 *6:59 *6:127 0.741288
129 *6:59 *6:128 0.741288
130 *6:60 *6:128 0.741288
131 *6:60 *6:129 0.741288
132 *6:61 *6:129 0.702273
133 *6:61 *6:130 0.702273
134 *6:62 *6:130 0.702273
135 *6:62 *6:131 0.702273
136 *6:63 *6:131 0.0608636
137 *6:4 *6:34 20
138 *6:11 *6:38 20
139 *6:17 *6:42 20
140 *6:24 *6:46 20
141 *6:31 *6:50 20
142 *6:37 *6:54 20
143 *6:41 *6:57 20
144 *6:45 *6:58 20
145 *6:49 *6:60 20
146 *6:53 *6:63 20
*END

*D_NET *7 0.678767
*CAP
1 *7 0.041061
2 *7:2 0.0587418
3 *7:3 0.0443919
4 *7:4 0.0219768
5 *7:5 0.0694239
6 *7:6 0.0596365
7 *7:7 0.040656
8 *7:8 0.0257126
9 *7:9 0.0595445
10 *7:10 0.0900639
11 *7:11 0.0554011
12 *7:12 0.0207561
13 *7:13 0.0706448
14 *7:14 0.0207561
*RES
1 *7 *7:15 0.0675
2 *7:6 *7:15 0.015
3 *7:2 *7:16 0.1215
4 *7:6 *7:16 0.015
5 *7:3 *7:17 0.0644318
6 *7:4 *7:17 0.00306818
7 *7:3 *7:18 0.0644318
8 *7:5 *7:18 0.154125
9 *7:5 *7:19 0.029562
10 *7:6 *7:19 0.30375
11 *7:7 *7:20 0.0542045
12 *7:8 *7:20 0.0132955
13 *7:9 *7:21 0.0491591
14 *7:10 *7:21 0.0990985
15 *7:10 *7:22 0.0990985
16 *7:13 *7:22 0.0140455
17 *7:11 *7:23 0.137333
18 *7:12 *7:23 0.0202879
19 *7:11 *7:24 0.0193125
20 *7:13 *7:24 0.0140455
21 *7:12 *7:25 0.130731
22 *7:14 *7:25 0.130731
23 *7:13 *7:26 0.188833
24 *7:14 *7:26 0.0202879
25 *7:3 *7:9 20
26 *7:7 *7:11 20
*END

*D_NET *8 0.657911
*CAP
1 *8 0.041061
2 *8:2 0.0587418
3 *8:3 0.0436447
4 *8:4 0.0227239
5 *8:5 0.0694239
6 *8:6 0.0596365
7 *8:7 0.0455126
8 *8:8 0.0595445
9 *8:9 0.0900639
10 *8:10 0.0276851
11 *8:11 0.0484721
12 *8:12 0.0429289
13 *8:13 0.0484721
*RES
1 *8 *8:14 0.0675
2 *8:6 *8:14 0.015
3 *8:2 *8:15 0.1215
4 *8:6 *8:15 0.015
5 *8:3 *8:16 0.0623864
6 *8:4 *8:16 0.00511364
7 *8:3 *8:17 0.0730328
8 *8:5 *8:17 0.154125
9 *8:4 *8:18 0.891
10 *8:5 *8:18 0.154125
11 *8:5 *8:19 0.029562
12 *8:6 *8:19 0.30375
13 *8:8 *8:20 0.0491591
14 *8:9 *8:20 0.0990985
15 *8:9 *8:21 0.0990985
16 *8:12 *8:21 0.0278607
17 *8:9 *8:22 0.0990985
18 *8:13 *8:22 0.0232808
19 *8:10 *8:23 0.043697
20 *8:11 *8:23 0.113924
21 *8:10 *8:24 0.0606964
22 *8:12 *8:24 0.0278607
23 *8:11 *8:25 0.0232808
24 *8:13 *8:25 0.0232808
25 *8:12 *8:26 0.095197
26 *8:13 *8:26 0.113924
27 *8:3 *8:8 20
28 *8:7 *8:11 20
*END

*D_NET *9 0.657911
*CAP
1 *9 0.041061
2 *9:2 0.0587418
3 *9:3 0.0443919
4 *9:4 0.0219768
5 *9:5 0.0694239
6 *9:6 0.0596365
7 *9:7 0.0455126
8 *9:8 0.0595445
9 *9:9 0.0900639
10 *9:10 0.0461624
11 *9:11 0.0299948
12 *9:12 0.0614062
13 *9:13 0.0299948
*RES
1 *9 *9:14 0.0675
2 *9:6 *9:14 0.015
3 *9:2 *9:15 0.1215
4 *9:6 *9:15 0.015
5 *9:3 *9:16 0.0644318
6 *9:4 *9:16 0.00306818
7 *9:3 *9:17 0.0644318
8 *9:5 *9:17 0.154125
9 *9:5 *9:18 0.029562
10 *9:6 *9:18 0.30375
11 *9:8 *9:19 0.0491591
12 *9:9 *9:19 0.0990985
13 *9:9 *9:20 0.0990985
14 *9:12 *9:20 0.0168267
15 *9:10 *9:21 0.106121
16 *9:11 *9:21 0.0515
17 *9:10 *9:22 0.0249926
18 *9:12 *9:22 0.0168267
19 *9:11 *9:23 0.0515
20 *9:13 *9:23 0.0515
21 *9:12 *9:24 0.157621
22 *9:13 *9:24 0.0515
23 *9:3 *9:8 20
24 *9:7 *9:10 20
*END

*D_NET *10 0.628409
*CAP
1 *10 0.041061
2 *10:2 0.0587418
3 *10:3 0.0443919
4 *10:4 0.0219768
5 *10:5 0.0694239
6 *10:6 0.0596365
7 *10:7 0.0455126
8 *10:8 0.0595445
9 *10:9 0.0900639
10 *10:10 0.0614062
11 *10:11 0.07665
*RES
1 *10 *10:12 0.0675
2 *10:6 *10:12 0.015
3 *10:2 *10:13 0.1215
4 *10:6 *10:13 0.015
5 *10:3 *10:14 0.0644318
6 *10:4 *10:14 0.00306818
7 *10:3 *10:15 0.0644318
8 *10:5 *10:15 0.154125
9 *10:5 *10:16 0.029562
10 *10:6 *10:16 0.30375
11 *10:8 *10:17 0.0491591
12 *10:9 *10:17 0.0990985
13 *10:9 *10:18 0.0990985
14 *10:11 *10:18 0.0126828
15 *10:10 *10:19 0.0168267
16 *10:11 *10:19 0.0126828
17 *10:3 *10:8 20
18 *10:7 *10:10 20
*END

*D_NET *11 0.637055
*CAP
1 *11 0.041061
2 *11:2 0.0587418
3 *11:3 0.0455126
4 *11:4 0.069424
5 *11:5 0.0596365
6 *11:6 0.0455126
7 *11:7 0.0595445
8 *11:8 0.0900639
9 *11:9 0.0369238
10 *11:10 0.0392334
11 *11:11 0.0521675
12 *11:12 0.0392334
*RES
1 *11 *11:13 0.0675
2 *11:5 *11:13 0.015
3 *11:2 *11:14 0.1215
4 *11:5 *11:14 0.015
5 *11:3 *11:15 0.0675
6 *11:4 *11:15 0.154125
7 *11:4 *11:16 0.029562
8 *11:5 *11:16 0.30375
9 *11:7 *11:17 0.0491591
10 *11:8 *11:17 0.0990985
11 *11:8 *11:18 0.0990985
12 *11:11 *11:18 0.0209815
13 *11:9 *11:19 0.0749091
14 *11:10 *11:19 0.0827121
15 *11:9 *11:20 0.0354062
16 *11:11 *11:20 0.0209815
17 *11:10 *11:21 0.032066
18 *11:12 *11:21 0.032066
19 *11:11 *11:22 0.126409
20 *11:12 *11:22 0.0827121
21 *11:3 *11:7 20
22 *11:6 *11:10 20
*END

*D_NET *12 13.4347
*CAP
1 *12 0.025222
2 *12:2 0.0324371
3 *12:3 0.0339315
4 *12:4 0.025222
5 *12:5 0.0620569
6 *12:6 0.0455126
7 *12:7 0.0252219
8 *12:8 0.0455126
9 *12:9 0.0455126
10 *12:10 0.430407
11 *12:11 0.0455126
12 *12:12 0.025222
13 *12:13 0.0455126
14 *12:14 0.0455126
15 *12:15 0.372023
16 *12:16 0.372023
17 *12:17 0.0399088
18 *12:18 0.0264598
19 *12:19 0.025222
20 *12:20 0.0782888
21 *12:21 0.0782888
22 *12:22 0.0643131
23 *12:23 0.482524
24 *12:24 0.482524
25 *12:25 0.0643131
26 *12:26 0.0357012
27 *12:27 0.0357012
28 *12:28 0.0357012
29 *12:29 0.0357012
30 *12:30 0.0357012
31 *12:31 0.036484
32 *12:32 0.1109
33 *12:33 0.15741
34 *12:34 0.31973
35 *12:35 0.0538221
36 *12:36 0.036655
37 *12:37 0.0868125
38 *12:38 0.0715687
39 *12:39 0.152056
40 *12:40 0.799639
41 *12:41 0.799639
42 *12:42 0.0643131
43 *12:43 0.0450054
44 *12:44 0.74998
45 *12:45 0.74998
46 *12:46 0.74998
47 *12:47 0.74998
48 *12:48 0.74998
49 *12:49 0.522395
50 *12:50 0.522395
51 *12:51 0.0179893
52 *12:52 0.310893
53 *12:53 0.310893
54 *12:54 0.310893
55 *12:55 0.0179893
56 *12:56 0.31593
57 *12:57 0.31593
58 *12:58 0.31593
59 *12:59 0.0637174
60 *12:60 0.276099
61 *12:61 0.17047
62 *12:62 0.0482107
63 *12:63 0.185581
64 *12:64 0.0482107
*RES
1 *12 *12:65 0.019125
2 *12:2 *12:65 0.14371
3 *12 *12:66 0.019125
4 *12:3 *12:66 0.127286
5 *12:2 *12:67 0.0317045
6 *12:3 *12:67 0.0357955
7 *12:2 *12:68 0.14371
8 *12:4 *12:68 0.019125
9 *12:3 *12:69 0.127286
10 *12:4 *12:69 0.019125
11 *12:5 *12:70 0.131625
12 *12:6 *12:70 0.0675
13 *12:6 *12:71 0.0675
14 *12:7 *12:71 0.019125
15 *12:10 *12:72 1.25662
16 *12:11 *12:72 0.0675
17 *12:11 *12:73 0.0675
18 *12:12 *12:73 0.019125
19 *12:15 *12:74 1.07831
20 *12:16 *12:74 1.07831
21 *12:15 *12:75 1.07831
22 *12:17 *12:75 0.0873529
23 *12:15 *12:76 1.07831
24 *12:18 *12:76 0.297
25 *12:17 *12:77 0.0521591
26 *12:18 *12:77 0.0153409
27 *12:17 *12:78 0.0873529
28 *12:19 *12:78 0.019125
29 *12:18 *12:79 0.297
30 *12:19 *12:79 0.019125
31 *12:22 *12:80 0.0569621
32 *12:23 *12:80 0.741288
33 *12:23 *12:81 0.741288
34 *12:24 *12:81 0.741288
35 *12:24 *12:82 0.741288
36 *12:25 *12:82 0.0569621
37 *12:26 *12:83 0.0101439
38 *12:31 *12:83 0.0515
39 *12:26 *12:84 0.0101439
40 *12:32 *12:84 0.0103
41 *12:27 *12:85 0.0101439
42 *12:32 *12:85 0.0103
43 *12:27 *12:86 0.0101439
44 *12:33 *12:86 0.00686667
45 *12:28 *12:87 0.0101439
46 *12:33 *12:87 0.00686667
47 *12:28 *12:88 0.0101439
48 *12:34 *12:88 0.00317411
49 *12:29 *12:89 0.0101439
50 *12:31 *12:89 0.0515
51 *12:29 *12:90 0.0101439
52 *12:32 *12:90 0.0103
53 *12:30 *12:91 0.0101439
54 *12:33 *12:91 0.00686667
55 *12:30 *12:92 0.0101439
56 *12:34 *12:92 0.00317411
57 *12:31 *12:93 0.0515
58 *12:32 *12:93 0.2575
59 *12:32 *12:94 0.2575
60 *12:33 *12:94 0.38625
61 *12:32 *12:95 0.0103
62 *12:40 *12:95 1.26019
63 *12:33 *12:96 0.38625
64 *12:34 *12:96 0.835588
65 *12:33 *12:97 0.00686667
66 *12:40 *12:97 1.26019
67 *12:34 *12:98 0.835587
68 *12:35 *12:98 0.0397955
69 *12:34 *12:99 0.00317411
70 *12:39 *12:99 0.200538
71 *12:35 *12:100 0.0397955
72 *12:36 *12:100 0.0117045
73 *12:37 *12:101 0.0108942
74 *12:38 *12:101 0.0138171
75 *12:37 *12:102 0.0108942
76 *12:39 *12:102 0.200538
77 *12:40 *12:103 1.26019
78 *12:41 *12:103 1.26019
79 *12:41 *12:104 1.26019
80 *12:42 *12:104 0.0569621
81 *12:43 *12:105 0.02575
82 *12:44 *12:105 1.20167
83 *12:44 *12:106 1.20167
84 *12:45 *12:106 1.20167
85 *12:45 *12:107 1.20167
86 *12:46 *12:107 1.20167
87 *12:46 *12:108 1.20167
88 *12:47 *12:108 1.20167
89 *12:47 *12:109 1.20167
90 *12:48 *12:109 1.20167
91 *12:48 *12:110 1.20167
92 *12:49 *12:110 0.822049
93 *12:49 *12:111 0.822049
94 *12:50 *12:111 0.822049
95 *12:50 *12:112 0.822049
96 *12:58 *12:112 0.00258414
97 *12:51 *12:113 0.0109242
98 *12:52 *12:113 1.00919
99 *12:51 *12:114 0.242786
100 *12:55 *12:114 0.242786
101 *12:51 *12:115 0.0109242
102 *12:62 *12:115 0.0232808
103 *12:52 *12:116 1.00919
104 *12:53 *12:116 1.00919
105 *12:52 *12:117 0.00262809
106 *12:56 *12:117 0.00258414
107 *12:53 *12:118 1.00919
108 *12:54 *12:118 1.00919
109 *12:53 *12:119 0.00262809
110 *12:56 *12:119 0.00258414
111 *12:53 *12:120 0.00262809
112 *12:57 *12:120 0.00258414
113 *12:54 *12:121 0.00262809
114 *12:57 *12:121 0.00258414
115 *12:54 *12:122 0.00262809
116 *12:58 *12:122 0.00258414
117 *12:55 *12:123 0.0109242
118 *12:56 *12:123 1.02636
119 *12:55 *12:124 0.0109242
120 *12:62 *12:124 0.0232808
121 *12:56 *12:125 1.02636
122 *12:57 *12:125 1.02636
123 *12:57 *12:126 1.02636
124 *12:58 *12:126 1.02636
125 *12:59 *12:127 0.0569621
126 *12:60 *12:127 0.41122
127 *12:60 *12:128 0.41122
128 *12:63 *12:128 0.0045563
129 *12:61 *12:129 0.530606
130 *12:62 *12:129 0.113924
131 *12:61 *12:130 0.00499853
132 *12:63 *12:130 0.0045563
133 *12:62 *12:131 0.0232808
134 *12:64 *12:131 0.0232808
135 *12:63 *12:132 0.582106
136 *12:64 *12:132 0.113924
137 *12:9 *12:20 20
138 *12:14 *12:21 20
139 *12:13 *12:22 20
140 *12:11 *12:31 20
141 *12:3 *12:33 20
142 *12:6 *12:33 20
143 *12:17 *12:35 20
144 *12:8 *12:37 20
145 *12:20 *12:59 20
146 *12:21 *12:62 20
147 *12:25 *12:43 20
148 *12:42 *12:49 20
*END

*D_NET *13 1.14806
*CAP
1 *13 0.198346
2 *13:2 0.0283277
3 *13:3 0.0380409
4 *13:4 0.0362725
5 *13:5 0.419356
6 *13:6 0.040656
7 *13:7 0.0257126
8 *13:8 0.0362724
9 *13:9 0.0357012
10 *13:10 0.0357012
11 *13:11 0.027182
12 *13:12 0.136015
13 *13:13 0.0547758
14 *13:14 0.0357012
*RES
1 *13 *13:15 0.547875
2 *13:2 *13:15 0.22275
3 *13 *13:16 0.547875
4 *13:3 *13:16 0.0968478
5 *13:2 *13:17 0.0204545
6 *13:3 *13:17 0.0470455
7 *13:2 *13:18 0.22275
8 *13:4 *13:18 0.052875
9 *13:3 *13:19 0.0968478
10 *13:4 *13:19 0.052875
11 *13:5 *13:20 1.22288
12 *13:7 *13:20 0.0132955
13 *13:6 *13:21 0.0542045
14 *13:7 *13:21 0.0132955
15 *13:6 *13:22 0.0542045
16 *13:8 *13:22 0.052875
17 *13:9 *13:23 0.0101439
18 *13:11 *13:23 0.103
19 *13:9 *13:24 0.0101439
20 *13:12 *13:24 0.00811024
21 *13:10 *13:25 0.0101439
22 *13:11 *13:25 0.103
23 *13:10 *13:26 0.0101439
24 *13:12 *13:26 0.00811024
25 *13:11 *13:27 0.02575
26 *13:12 *13:27 0.327025
27 *13:12 *13:28 0.327025
28 *13:13 *13:28 0.0641321
29 *13:13 *13:29 0.0413561
30 *13:14 *13:29 0.0101439
31 *13:3 *13:12 20
32 *13:6 *13:13 20
*END

*D_NET *14 16.3997
*CAP
1 *14 0.0804745
2 *14:2 0.0331843
3 *14:3 0.0331843
4 *14:4 0.375154
5 *14:5 0.0510065
6 *14:6 0.0339315
7 *14:7 0.0324371
8 *14:8 0.359131