*SPEF "IEEE 1481-1998"
*DESIGN "DualCtrlVCO_ihp"
*DATE "emirtool"
*VENDOR "emirtool"
*PROGRAM "emirtool"
*VERSION "1.0"
*DESIGN_FLOW "EXTRACTION"
*DIVIDER /
*DELIMITER :
*BUS_DELIMITER [ ]
*T_UNIT 1 PS
*C_UNIT 1 FF
*R_UNIT 1 OHM
*L_UNIT 1 HENRY

*NAME_MAP
*1 VSS
*2 $2
*3 $3
*4 $4
*5 $5
*6 $6
*7 VFINE
*8 $8
*9 $9
*10 $10
*11 $11
*12 $12
*13 VCO_CLK
*14 VREG
*15 VCOARSE

*D_NET *1 8.03013
*CAP
1 *1 0.175877
2 *1:2 0.175877
3 *1:3 0.175877
4 *1:4 0.175877
5 *1:5 0.175877
6 *1:6 0.323217
7 *1:7 0.586628
8 *1:8 0.586628
9 *1:9 0.586628
10 *1:10 0.586628
11 *1:11 0.586628
12 *1:12 0.586628
13 *1:13 0.586628
14 *1:14 0.544227
15 *1:15 0.544227
16 *1:16 0.544227
17 *1:17 0.544227
18 *1:18 0.544227
*RES
1 *1 *1:19 0.47925
2 *1:7 *1:19 0.00304839
3 *1:2 *1:20 0.47925
4 *1:8 *1:20 0.00304839
5 *1:3 *1:21 0.47925
6 *1:10 *1:21 0.00304839
7 *1:4 *1:22 0.47925
8 *1:11 *1:22 0.00304839
9 *1:5 *1:23 0.47925
10 *1:12 *1:23 0.00304839
11 *1:6 *1:24 0.92925
12 *1:13 *1:24 0.00304839
13 *1:7 *1:25 1.49464
14 *1:8 *1:25 1.49464
15 *1:7 *1:26 0.00304839
16 *1:14 *1:26 1.60425
17 *1:8 *1:27 1.49464
18 *1:9 *1:27 1.49464
19 *1:8 *1:28 0.00304839
20 *1:15 *1:28 1.60425
21 *1:9 *1:29 1.49464
22 *1:10 *1:29 1.49464
23 *1:9 *1:30 0.00304839
24 *1:16 *1:30 1.60425
25 *1:10 *1:31 1.49464
26 *1:11 *1:31 1.49464
27 *1:10 *1:32 0.00304839
28 *1:17 *1:32 1.60425
29 *1:11 *1:33 1.49464
30 *1:12 *1:33 1.49464
31 *1:11 *1:34 0.00304839
32 *1:18 *1:34 1.60425
33 *1:12 *1:35 1.49464
34 *1:13 *1:35 1.49464
35 *1:12 *1:36 0.00304839
36 *1:18 *1:36 1.60425
*END

*D_NET *2 5.9269
*CAP
1 *2 0.025222
2 *2:2 0.0455126
3 *2:3 0.025222
4 *2:4 0.0620569
5 *2:5 0.0455126
6 *2:6 0.0252219
7 *2:7 0.0331843
8 *2:8 0.0331843
9 *2:9 0.430407
10 *2:10 0.0455126
11 *2:11 0.025222
12 *2:12 0.0455126
13 *2:13 0.372023
14 *2:14 0.372023
15 *2:15 0.0455126
16 *2:16 0.0252219
17 *2:17 0.0357012
18 *2:18 0.0357012
19 *2:19 0.0357012
20 *2:20 0.0357012
21 *2:21 0.0357012
22 *2:22 0.055088
23 *2:23 0.1109
24 *2:24 0.1109
25 *2:25 0.34345
26 *2:26 0.0220659
27 *2:27 0.0609751
28 *2:28 0.0299948
29 *2:29 0.0715687
30 *2:30 0.0299948
31 *2:31 0.0563249
32 *2:32 0.152056
33 *2:33 0.702597
34 *2:34 0.702597
35 *2:35 0.0643131
36 *2:36 0.741461
37 *2:37 0.0627818
38 *2:38 0.774773
*RES
1 *2 *2:39 0.019125
2 *2:2 *2:39 0.0675
3 *2:2 *2:40 0.0675
4 *2:3 *2:40 0.019125
5 *2:4 *2:41 0.131625
6 *2:5 *2:41 0.0675
7 *2:5 *2:42 0.0675
8 *2:6 *2:42 0.019125
9 *2:7 *2:43 0.03375
10 *2:8 *2:43 0.03375
11 *2:9 *2:44 1.25662
12 *2:10 *2:44 0.0675
13 *2:10 *2:45 0.0675
14 *2:11 *2:45 0.019125
15 *2:13 *2:46 1.07831
16 *2:14 *2:46 1.07831
17 *2:13 *2:47 1.07831
18 *2:15 *2:47 0.0675
19 *2:15 *2:48 0.0675
20 *2:16 *2:48 0.019125
21 *2:17 *2:49 0.0101439
22 *2:22 *2:49 0.02575
23 *2:18 *2:50 0.0101439
24 *2:23 *2:50 0.0103
25 *2:19 *2:51 0.0101439
26 *2:24 *2:51 0.0103
27 *2:19 *2:52 0.0101439
28 *2:25 *2:52 0.00294286
29 *2:20 *2:53 0.0101439
30 *2:22 *2:53 0.02575
31 *2:21 *2:54 0.0101439
32 *2:24 *2:54 0.0103
33 *2:21 *2:55 0.0101439
34 *2:25 *2:55 0.00294286
35 *2:22 *2:56 0.103
36 *2:23 *2:56 0.2575
37 *2:23 *2:57 0.2575
38 *2:24 *2:57 0.2575
39 *2:23 *2:58 0.0103
40 *2:33 *2:58 1.1014
41 *2:24 *2:59 0.2575
42 *2:25 *2:59 0.90125
43 *2:25 *2:60 0.90125
44 *2:26 *2:60 0.0115875
45 *2:25 *2:61 0.00294286
46 *2:32 *2:61 0.200538
47 *2:26 *2:62 0.0115875
48 *2:27 *2:62 0.0515
49 *2:28 *2:63 0.0515
50 *2:29 *2:63 0.191955
51 *2:28 *2:64 0.0515
52 *2:30 *2:64 0.0515
53 *2:29 *2:65 0.0138171
54 *2:31 *2:65 0.0188833
55 *2:29 *2:66 0.0138171
56 *2:32 *2:66 0.200538
57 *2:30 *2:67 0.0515
58 *2:31 *2:67 0.140455
59 *2:33 *2:68 1.1014
60 *2:34 *2:68 1.1014
61 *2:35 *2:69 0.0569621
62 *2:36 *2:69 1.16499
63 *2:37 *2:70 0.0554015
64 *2:38 *2:70 1.24302
65 *2:10 *2:22 20
66 *2:2 *2:23 20
67 *2:5 *2:25 20
68 *2:15 *2:27 20
69 *2:7 *2:28 20
70 *2:12 *2:35 20
71 *2:34 *2:37 20
72 *2:36 *2:38 20
*END

*D_NET *3 6.22497
*CAP
1 *3 0.0252219
2 *3:2 0.0249654
3 *3:3 0.0414032
4 *3:4 0.0252219
5 *3:5 0.0620569
6 *3:6 0.036173
7 *3:7 0.0301956
8 *3:8 0.0252219
9 *3:9 0.0455126
10 *3:10 0.430407
11 *3:11 0.0283277
12 *3:12 0.0380409
13 *3:13 0.0252219
14 *3:14 0.0257126
15 *3:15 0.040656
16 *3:16 0.372023
17 *3:17 0.372023
18 *3:18 0.0324371
19 *3:19 0.0339315
20 *3:20 0.025222
21 *3:21 0.0357012
22 *3:22 0.0357012
23 *3:23 0.0357012
24 *3:24 0.0357012
25 *3:25 0.0357012
26 *3:26 0.027182
27 *3:27 0.1109
28 *3:28 0.15741
29 *3:29 0.329032
30 *3:30 0.0442848
31 *3:31 0.0461923
32 *3:32 0.0484721
33 *3:33 0.0530914
34 *3:34 0.0484721
35 *3:35 0.0378476
36 *3:36 0.152056
37 *3:37 0.728109
38 *3:38 0.728109
39 *3:39 0.0357012
40 *3:40 0.0643131
41 *3:41 0.792486
42 *3:42 0.0357012
43 *3:43 0.0347138
44 *3:44 0.778048
45 *3:45 0.0543614
*RES
1 *3 *3:46 0.019125
2 *3:2 *3:46 0.405
3 *3 *3:47 0.019125
4 *3:3 *3:47 0.081
5 *3:2 *3:48 0.01125
6 *3:3 *3:48 0.05625
7 *3:2 *3:49 0.405
8 *3:4 *3:49 0.019125
9 *3:3 *3:50 0.081
10 *3:4 *3:50 0.019125
11 *3:5 *3:51 0.131625
12 *3:6 *3:51 0.108659
13 *3:5 *3:52 0.131625
14 *3:7 *3:52 0.1782
15 *3:6 *3:53 0.0419318
16 *3:7 *3:53 0.0255682
17 *3:6 *3:54 0.108659
18 *3:8 *3:54 0.019125
19 *3:7 *3:55 0.1782
20 *3:8 *3:55 0.019125
21 *3:10 *3:56 1.25663
22 *3:11 *3:56 0.22275
23 *3:10 *3:57 1.25663
24 *3:12 *3:57 0.0968478
25 *3:11 *3:58 0.0204545
26 *3:12 *3:58 0.0470455
27 *3:11 *3:59 0.22275
28 *3:13 *3:59 0.019125
29 *3:12 *3:60 0.0968478
30 *3:13 *3:60 0.019125
31 *3:14 *3:61 0.0132955
32 *3:15 *3:61 0.0542045
33 *3:16 *3:62 1.07831
34 *3:17 *3:62 1.07831
35 *3:16 *3:63 1.07831
36 *3:18 *3:63 0.14371
37 *3:16 *3:64 1.07831
38 *3:19 *3:64 0.127286
39 *3:18 *3:65 0.0317045
40 *3:19 *3:65 0.0357955
41 *3:18 *3:66 0.14371
42 *3:20 *3:66 0.019125
43 *3:19 *3:67 0.127286
44 *3:20 *3:67 0.019125
45 *3:21 *3:68 0.0101439
46 *3:26 *3:68 0.103
47 *3:21 *3:69 0.0101439
48 *3:27 *3:69 0.0103
49 *3:22 *3:70 0.0101439
50 *3:27 *3:70 0.0103
51 *3:22 *3:71 0.0101439
52 *3:28 *3:71 0.00686667
53 *3:23 *3:72 0.0101439
54 *3:28 *3:72 0.00686667
55 *3:23 *3:73 0.0101439
56 *3:29 *3:73 0.00307922
57 *3:24 *3:74 0.0101439
58 *3:26 *3:74 0.103
59 *3:24 *3:75 0.0101439
60 *3:27 *3:75 0.0103
61 *3:25 *3:76 0.0101439
62 *3:28 *3:76 0.00686667
63 *3:25 *3:77 0.0101439
64 *3:29 *3:77 0.00307922
65 *3:26 *3:78 0.02575
66 *3:27 *3:78 0.2575
67 *3:27 *3:79 0.2575
68 *3:28 *3:79 0.38625
69 *3:27 *3:80 0.0103
70 *3:37 *3:80 1.14314
71 *3:28 *3:81 0.38625
72 *3:29 *3:81 0.861337
73 *3:28 *3:82 0.00686667
74 *3:37 *3:82 1.14314
75 *3:29 *3:83 0.861338
76 *3:30 *3:83 0.0241894
77 *3:29 *3:84 0.00307922
78 *3:36 *3:84 0.200538
79 *3:30 *3:85 0.0241894
80 *3:31 *3:85 0.0273106
81 *3:32 *3:86 0.113924
82 *3:33 *3:86 0.12953
83 *3:32 *3:87 0.0232808
84 *3:34 *3:87 0.0232808
85 *3:33 *3:88 0.0204759
86 *3:35 *3:88 0.03399
87 *3:33 *3:89 0.0204759
88 *3:36 *3:89 0.200538
89 *3:34 *3:90 0.113924
90 *3:35 *3:90 0.0780303
91 *3:37 *3:91 1.14314
92 *3:38 *3:91 1.14314
93 *3:38 *3:92 1.14314
94 *3:39 *3:92 0.0101439
95 *3:40 *3:93 0.0569621
96 *3:41 *3:93 1.24848
97 *3:41 *3:94 1.24848
98 *3:42 *3:94 0.0101439
99 *3:43 *3:95 0.00858333
100 *3:44 *3:95 1.24848
101 *3:44 *3:96 1.24848
102 *3:45 *3:96 0.0413561
103 *3:12 *3:27 20
104 *3:3 *3:28 20
105 *3:6 *3:28 20
106 *3:19 *3:31 20
107 *3:9 *3:32 20
108 *3:15 *3:40 20
109 *3:38 *3:44 20
110 *3:41 *3:45 20
*END

*D_NET *4 6.2977
*CAP
1 *4 0.0252219
2 *4:2 0.0455126
3 *4:3 0.0252219
4 *4:4 0.062057
5 *4:5 0.0455126
6 *4:6 0.025222
7 *4:7 0.0257126
8 *4:8 0.040656
9 *4:9 0.430407
10 *4:10 0.0432711
11 *4:11 0.0230975
12 *4:12 0.025222
13 *4:13 0.040656
14 *4:14 0.0257126
15 *4:15 0.372023
16 *4:16 0.372023
17 *4:17 0.0455126
18 *4:18 0.025222
19 *4:19 0.0357012
20 *4:20 0.0357012
21 *4:21 0.0357012
22 *4:22 0.0357012
23 *4:23 0.0357012
24 *4:24 0.045786
25 *4:25 0.1109
26 *4:26 0.15741
27 *4:27 0.310428
28 *4:28 0.0609751
29 *4:29 0.0207561
30 *4:30 0.0808073
31 *4:31 0.0207561
32 *4:32 0.0655636
33 *4:33 0.152056
34 *4:34 0.751952
35 *4:35 0.751952
36 *4:36 0.0452385
37 *4:37 0.0643131
38 *4:38 0.434837
39 *4:39 0.434837
40 *4:40 0.0452385
41 *4:41 0.0534258
42 *4:42 0.778048
43 *4:43 0.0356494
*RES
1 *4 *4:44 0.019125
2 *4:2 *4:44 0.0675
3 *4:2 *4:45 0.0675
4 *4:3 *4:45 0.019125
5 *4:4 *4:46 0.131625
6 *4:5 *4:46 0.0675
7 *4:5 *4:47 0.0675
8 *4:6 *4:47 0.019125
9 *4:7 *4:48 0.0132955
10 *4:8 *4:48 0.0542045
11 *4:9 *4:49 1.25662
12 *4:10 *4:49 0.07425
13 *4:9 *4:50 1.25662
14 *4:11 *4:50 0.7425
15 *4:10 *4:51 0.0613636
16 *4:11 *4:51 0.00613636
17 *4:10 *4:52 0.07425
18 *4:12 *4:52 0.019125
19 *4:11 *4:53 0.7425
20 *4:12 *4:53 0.019125
21 *4:13 *4:54 0.0542045
22 *4:14 *4:54 0.0132955
23 *4:15 *4:55 1.07831
24 *4:16 *4:55 1.07831
25 *4:15 *4:56 1.07831
26 *4:17 *4:56 0.0675
27 *4:17 *4:57 0.0675
28 *4:18 *4:57 0.019125
29 *4:19 *4:58 0.0101439
30 *4:24 *4:58 0.0343333
31 *4:19 *4:59 0.0101439
32 *4:25 *4:59 0.0103
33 *4:20 *4:60 0.0101439
34 *4:25 *4:60 0.0103
35 *4:20 *4:61 0.0101439
36 *4:26 *4:61 0.00686667
37 *4:21 *4:62 0.0101439
38 *4:26 *4:62 0.00686667
39 *4:22 *4:63 0.0101439
40 *4:24 *4:63 0.0343333
41 *4:22 *4:64 0.0101439
42 *4:25 *4:64 0.0103
43 *4:23 *4:65 0.0101439
44 *4:26 *4:65 0.00686667
45 *4:24 *4:66 0.07725
46 *4:25 *4:66 0.2575
47 *4:25 *4:67 0.2575
48 *4:26 *4:67 0.38625
49 *4:25 *4:68 0.0103
50 *4:34 *4:68 1.18216
51 *4:26 *4:69 0.38625
52 *4:27 *4:69 0.809837
53 *4:26 *4:70 0.00686667
54 *4:34 *4:70 1.18216
55 *4:27 *4:71 0.809838
56 *4:28 *4:71 0.0515
57 *4:27 *4:72 0.00327504
58 *4:33 *4:72 0.200538
59 *4:29 *4:73 0.0202879
60 *4:30 *4:73 0.223167
61 *4:29 *4:74 0.130731
62 *4:31 *4:74 0.130731
63 *4:30 *4:75 0.0118846
64 *4:32 *4:75 0.01545
65 *4:30 *4:76 0.0118846
66 *4:33 *4:76 0.200538
67 *4:31 *4:77 0.0202879
68 *4:32 *4:77 0.171667
69 *4:34 *4:78 1.18216
70 *4:35 *4:78 1.18216
71 *4:35 *4:79 1.18216
72 *4:36 *4:79 0.02575
73 *4:37 *4:80 0.0569621
74 *4:38 *4:80 0.663258
75 *4:38 *4:81 0.663258
76 *4:39 *4:81 0.663258
77 *4:39 *4:82 0.663258
78 *4:40 *4:82 0.02575
79 *4:41 *4:83 0.0397955
80 *4:42 *4:83 1.24848
81 *4:42 *4:84 1.24848
82 *4:43 *4:84 0.0101439
83 *4:10 *4:24 20
84 *4:2 *4:25 20
85 *4:5 *4:26 20
86 *4:17 *4:28 20
87 *4:8 *4:30 20
88 *4:13 *4:37 20
89 *4:35 *4:41 20
90 *4:39 *4:42 20
*END

*D_NET *5 6.34385
*CAP
1 *5 0.0252219
2 *5:2 0.0455126
3 *5:3 0.0252219
4 *5:4 0.062057
5 *5:5 0.0287013
6 *5:6 0.0376673
7 *5:7 0.025222
8 *5:8 0.040656
9 *5:9 0.0257126
10 *5:10 0.430407
11 *5:11 0.0455126
12 *5:12 0.025222
13 *5:13 0.0455126
14 *5:14 0.372023
15 *5:15 0.372023
16 *5:16 0.0455126
17 *5:17 0.0252219
18 *5:18 0.0357012
19 *5:19 0.0357012
20 *5:20 0.0357012
21 *5:21 0.0357012
22 *5:22 0.0357012
23 *5:23 0.1109
24 *5:24 0.15741
25 *5:25 0.338334
26 *5:26 0.0609751
27 *5:27 0.0392334
28 *5:28 0.06233
29 *5:29 0.0392334
30 *5:30 0.0470863
31 *5:31 0.152056
32 *5:32 0.775796
33 *5:33 0.775796
34 *5:34 0.0547758
35 *5:35 0.0643131
36 *5:36 0.45868
37 *5:37 0.45868
38 *5:38 0.0547758
39 *5:39 0.773838
40 *5:40 0.0637174
*RES
1 *5 *5:41 0.019125
2 *5:2 *5:41 0.0675
3 *5:2 *5:42 0.0675
4 *5:3 *5:42 0.019125
5 *5:4 *5:43 0.131625
6 *5:5 *5:43 0.212143
7 *5:4 *5:44 0.131625
8 *5:6 *5:44 0.099
9 *5:5 *5:45 0.0214773
10 *5:6 *5:45 0.0460227
11 *5:5 *5:46 0.212143
12 *5:7 *5:46 0.019125
13 *5:6 *5:47 0.099
14 *5:7 *5:47 0.019125
15 *5:8 *5:48 0.0542045
16 *5:9 *5:48 0.0132955
17 *5:10 *5:49 1.25662
18 *5:11 *5:49 0.0675
19 *5:11 *5:50 0.0675
20 *5:12 *5:50 0.019125
21 *5:14 *5:51 1.07831
22 *5:15 *5:51 1.07831
23 *5:14 *5:52 1.07831
24 *5:16 *5:52 0.0675
25 *5:16 *5:53 0.0675
26 *5:17 *5:53 0.019125
27 *5:18 *5:54 0.0101439
28 *5:23 *5:54 0.0103
29 *5:19 *5:55 0.0101439
30 *5:24 *5:55 0.00686667
31 *5:20 *5:56 0.0101439
32 *5:24 *5:56 0.00686667
33 *5:20 *5:57 0.0101439
34 *5:25 *5:57 0.00298984
35 *5:21 *5:58 0.0101439
36 *5:23 *5:58 0.0103
37 *5:22 *5:59 0.0101439
38 *5:24 *5:59 0.00686667
39 *5:22 *5:60 0.0101439
40 *5:25 *5:60 0.00298984
41 *5:23 *5:61 0.2575
42 *5:24 *5:61 0.38625
43 *5:24 *5:62 0.38625
44 *5:25 *5:62 0.887087
45 *5:24 *5:63 0.00686667
46 *5:32 *5:63 1.22117
47 *5:25 *5:64 0.887088
48 *5:26 *5:64 0.0515
49 *5:25 *5:65 0.00298984
50 *5:31 *5:65 0.200538
51 *5:27 *5:66 0.0827121
52 *5:28 *5:66 0.160742
53 *5:27 *5:67 0.032066
54 *5:29 *5:67 0.032066
55 *5:28 *5:68 0.0165
56 *5:30 *5:68 0.0242786
57 *5:28 *5:69 0.0165
58 *5:31 *5:69 0.200538
59 *5:29 *5:70 0.0827121
60 *5:30 *5:70 0.109242
61 *5:32 *5:71 1.22117
62 *5:33 *5:71 1.22117
63 *5:33 *5:72 1.22117
64 *5:34 *5:72 0.0413561
65 *5:35 *5:73 0.0569621
66 *5:36 *5:73 0.702273
67 *5:36 *5:74 0.702273
68 *5:37 *5:74 0.702273
69 *5:37 *5:75 0.702273
70 *5:38 *5:75 0.0413561
71 *5:39 *5:76 1.24146
72 *5:40 *5:76 0.0569621
73 *5:11 *5:23 20
74 *5:2 *5:24 20
75 *5:6 *5:25 20
76 *5:16 *5:26 20
77 *5:8 *5:27 20
78 *5:13 *5:35 20
79 *5:34 *5:39 20
80 *5:38 *5:40 20
*END

*D_NET *6 13.4347
*CAP
1 *6 0.025222
2 *6:2 0.0324371
3 *6:3 0.0339315
4 *6:4 0.025222
5 *6:5 0.0620569
6 *6:6 0.0455126
7 *6:7 0.0252219
8 *6:8 0.0455126
9 *6:9 0.0455126
10 *6:10 0.430407
11 *6:11 0.0455126
12 *6:12 0.025222
13 *6:13 0.0455126
14 *6:14 0.0455126
15 *6:15 0.372023
16 *6:16 0.372023
17 *6:17 0.0399088
18 *6:18 0.0264598
19 *6:19 0.025222
20 *6:20 0.0782888
21 *6:21 0.0782888
22 *6:22 0.0643131
23 *6:23 0.482524
24 *6:24 0.482524
25 *6:25 0.0643131
26 *6:26 0.0357012
27 *6:27 0.0357012
28 *6:28 0.0357012
29 *6:29 0.0357012
30 *6:30 0.0357012
31 *6:31 0.036484
32 *6:32 0.1109
33 *6:33 0.15741
34 *6:34 0.31973
35 *6:35 0.0538221
36 *6:36 0.036655
37 *6:37 0.0868125
38 *6:38 0.0715687
39 *6:39 0.152056
40 *6:40 0.799639
41 *6:41 0.799639
42 *6:42 0.0643131
43 *6:43 0.0450054
44 *6:44 0.74998
45 *6:45 0.74998
46 *6:46 0.74998
47 *6:47 0.74998
48 *6:48 0.74998
49 *6:49 0.522395
50 *6:50 0.522395
51 *6:51 0.0179893
52 *6:52 0.310893
53 *6:53 0.310893
54 *6:54 0.310893
55 *6:55 0.0179893
56 *6:56 0.31593
57 *6:57 0.31593
58 *6:58 0.31593
59 *6:59 0.0637174
60 *6:60 0.276099
61 *6:61 0.17047
62 *6:62 0.0482107
63 *6:63 0.185581
64 *6:64 0.0482107
*RES
1 *6 *6:65 0.019125
2 *6:2 *6:65 0.14371
3 *6 *6:66 0.019125
4 *6:3 *6:66 0.127286
5 *6:2 *6:67 0.0317045
6 *6:3 *6:67 0.0357955
7 *6:2 *6:68 0.14371
8 *6:4 *6:68 0.019125
9 *6:3 *6:69 0.127286
10 *6:4 *6:69 0.019125
11 *6:5 *6:70 0.131625
12 *6:6 *6:70 0.0675
13 *6:6 *6:71 0.0675
14 *6:7 *6:71 0.019125
15 *6:10 *6:72 1.25662
16 *6:11 *6:72 0.0675
17 *6:11 *6:73 0.0675
18 *6:12 *6:73 0.019125
19 *6:15 *6:74 1.07831
20 *6:16 *6:74 1.07831
21 *6:15 *6:75 1.07831
22 *6:17 *6:75 0.0873529
23 *6:15 *6:76 1.07831
24 *6:18 *6:76 0.297
25 *6:17 *6:77 0.0521591
26 *6:18 *6:77 0.0153409
27 *6:17 *6:78 0.0873529
28 *6:19 *6:78 0.019125
29 *6:18 *6:79 0.297
30 *6:19 *6:79 0.019125
31 *6:22 *6:80 0.0569621
32 *6:23 *6:80 0.741288
33 *6:23 *6:81 0.741288
34 *6:24 *6:81 0.741288
35 *6:24 *6:82 0.741288
36 *6:25 *6:82 0.0569621
37 *6:26 *6:83 0.0101439
38 *6:31 *6:83 0.0515
39 *6:26 *6:84 0.0101439
40 *6:32 *6:84 0.0103
41 *6:27 *6:85 0.0101439
42 *6:32 *6:85 0.0103
43 *6:27 *6:86 0.0101439
44 *6:33 *6:86 0.00686667
45 *6:28 *6:87 0.0101439
46 *6:33 *6:87 0.00686667
47 *6:28 *6:88 0.0101439
48 *6:34 *6:88 0.00317411
49 *6:29 *6:89 0.0101439
50 *6:31 *6:89 0.0515
51 *6:29 *6:90 0.0101439
52 *6:32 *6:90 0.0103
53 *6:30 *6:91 0.0101439
54 *6:33 *6:91 0.00686667
55 *6:30 *6:92 0.0101439
56 *6:34 *6:92 0.00317411
57 *6:31 *6:93 0.0515
58 *6:32 *6:93 0.2575
59 *6:32 *6:94 0.2575
60 *6:33 *6:94 0.38625
61 *6:32 *6:95 0.0103
62 *6:40 *6:95 1.26019
63 *6:33 *6:96 0.38625
64 *6:34 *6:96 0.835588
65 *6:33 *6:97 0.00686667
66 *6:40 *6:97 1.26019
67 *6:34 *6:98 0.835587
68 *6:35 *6:98 0.0397955
69 *6:34 *6:99 0.00317411
70 *6:39 *6:99 0.200538
71 *6:35 *6:100 0.0397955
72 *6:36 *6:100 0.0117045
73 *6:37 *6:101 0.0108942
74 *6:38 *6:101 0.0138171
75 *6:37 *6:102 0.0108942
76 *6:39 *6:102 0.200538
77 *6:40 *6:103 1.26019
78 *6:41 *6:103 1.26019
79 *6:41 *6:104 1.26019
80 *6:42 *6:104 0.0569621
81 *6:43 *6:105 0.02575
82 *6:44 *6:105 1.20167
83 *6:44 *6:106 1.20167
84 *6:45 *6:106 1.20167
85 *6:45 *6:107 1.20167
86 *6:46 *6:107 1.20167
87 *6:46 *6:108 1.20167
88 *6:47 *6:108 1.20167
89 *6:47 *6:109 1.20167
90 *6:48 *6:109 1.20167
91 *6:48 *6:110 1.20167
92 *6:49 *6:110 0.822049
93 *6:49 *6:111 0.822049
94 *6:50 *6:111 0.822049
95 *6:50 *6:112 0.822049
96 *6:58 *6:112 0.00258414
97 *6:51 *6:113 0.0109242
98 *6:52 *6:113 1.00919
99 *6:51 *6:114 0.242786
100 *6:55 *6:114 0.242786
101 *6:51 *6:115 0.0109242
102 *6:62 *6:115 0.0232808
103 *6:52 *6:116 1.00919
104 *6:53 *6:116 1.00919
105 *6:52 *6:117 0.00262809
106 *6:56 *6:117 0.00258414
107 *6:53 *6:118 1.00919
108 *6:54 *6:118 1.00919
109 *6:53 *6:119 0.00262809
110 *6:56 *6:119 0.00258414
111 *6:53 *6:120 0.00262809
112 *6:57 *6:120 0.00258414
113 *6:54 *6:121 0.00262809
114 *6:57 *6:121 0.00258414
115 *6:54 *6:122 0.00262809
116 *6:58 *6:122 0.00258414
117 *6:55 *6:123 0.0109242
118 *6:56 *6:123 1.02636
119 *6:55 *6:124 0.0109242
120 *6:62 *6:124 0.0232808
121 *6:56 *6:125 1.02636
122 *6:57 *6:125 1.02636
123 *6:57 *6:126 1.02636
124 *6:58 *6:126 1.02636
125 *6:59 *6:127 0.0569621
126 *6:60 *6:127 0.41122
127 *6:60 *6:128 0.41122
128 *6:63 *6:128 0.0045563
129 *6:61 *6:129 0.530606
130 *6:62 *6:129 0.113924
131 *6:61 *6:130 0.00499853
132 *6:63 *6:130 0.0045563
133 *6:62 *6:131 0.0232808
134 *6:64 *6:131 0.0232808
135 *6:63 *6:132 0.582106
136 *6:64 *6:132 0.113924
137 *6:11 *6:31 20
138 *6:3 *6:33 20
139 *6:6 *6:33 20
140 *6:17 *6:35 20
141 *6:8 *6:37 20
142 *6:13 *6:22 20
143 *6:9 *6:20 20
144 *6:14 *6:21 20
145 *6:25 *6:43 20
146 *6:42 *6:49 20
147 *6:20 *6:59 20
148 *6:21 *6:62 20
*END

*D_NET *7 11.8716
*CAP
1 *7 0.0202244
2 *7:2 0.0202244
3 *7:3 0.0553031
4 *7:4 0.0403112
5 *7:5 0.0239886
6 *7:6 0.0804745
7 *7:7 0.0241169
8 *7:8 0.0202244
9 *7:9 0.0202244
10 *7:10 0.0553031
11 *7:11 0.0443919
12 *7:12 0.0804744
13 *7:13 0.0241169
14 *7:14 0.0202244
15 *7:15 0.0202244
16 *7:16 0.0553031
17 *7:17 0.0328919
18 *7:18 0.031408
19 *7:19 0.0804745
20 *7:20 0.0241169
21 *7:21 0.0202244
22 *7:22 0.0202244
23 *7:23 0.0553031
24 *7:24 0.0443919
25 *7:25 0.0804745
26 *7:26 0.0241169
27 *7:27 0.0202244
28 *7:28 0.0202244
29 *7:29 0.0553031
30 *7:30 0.0254725
31 *7:31 0.0388273
32 *7:32 0.0804745
33 *7:33 0.0241169
34 *7:34 0.0452385
35 *7:35 0.625583
36 *7:36 0.625583
37 *7:37 0.0547758
38 *7:38 0.0452385
39 *7:39 0.625583
40 *7:40 0.625583
41 *7:41 0.0547758
42 *7:42 0.0452385
43 *7:43 0.625583
44 *7:44 0.625583
45 *7:45 0.0547758
46 *7:46 0.0452385
47 *7:47 0.625583
48 *7:48 0.625583
49 *7:49 0.0547758
50 *7:50 0.0452385
51 *7:51 0.625583
52 *7:52 0.625583
53 *7:53 0.0547758
54 *7:54 0.0679276
55 *7:55 0.450588
56 *7:56 0.450588
57 *7:57 0.473978
58 *7:58 0.473978
59 *7:59 0.473978
60 *7:60 0.473978
61 *7:61 0.450588
62 *7:62 0.450588
63 *7:63 0.0660564
*RES
1 *7 *7:64 1.36125
2 *7:2 *7:64 1.36125
3 *7 *7:65 0.00334711
4 *7:3 *7:65 0.0245975
5 *7 *7:66 0.00334711
6 *7:4 *7:66 0.0773182
7 *7:2 *7:67 0.00334711
8 *7:3 *7:67 0.0245975
9 *7:2 *7:68 0.00334711
10 *7:4 *7:68 0.0773182
11 *7:2 *7:69 0.00334711
12 *7:5 *7:69 0.386591
13 *7:3 *7:70 0.0245975
14 *7:7 *7:70 0.01575
15 *7:4 *7:71 0.0589286
16 *7:5 *7:71 0.0117857
17 *7:4 *7:72 0.0773182
18 *7:6 *7:72 0.187875
19 *7:5 *7:73 0.386591
20 *7:6 *7:73 0.187875
21 *7:8 *7:74 1.36125
22 *7:9 *7:74 1.36125
23 *7:8 *7:75 0.00334711
24 *7:10 *7:75 0.0245975
25 *7:8 *7:76 0.00334711
26 *7:11 *7:76 0.0644318
27 *7:9 *7:77 0.00334711
28 *7:10 *7:77 0.0245975
29 *7:9 *7:78 0.00334711
30 *7:11 *7:78 0.0644318
31 *7:10 *7:79 0.0245975
32 *7:13 *7:79 0.01575
33 *7:11 *7:80 0.0644318
34 *7:12 *7:80 0.187875
35 *7:14 *7:81 1.36125
36 *7:15 *7:81 1.36125
37 *7:14 *7:82 0.00334711
38 *7:16 *7:82 0.0245975
39 *7:14 *7:83 0.00334711
40 *7:17 *7:83 0.1215
41 *7:15 *7:84 0.00334711
42 *7:16 *7:84 0.0245975
43 *7:15 *7:85 0.00334711
44 *7:17 *7:85 0.1215
45 *7:15 *7:86 0.00334711
46 *7:18 *7:86 0.137177
47 *7:16 *7:87 0.0245975
48 *7:20 *7:87 0.01575
49 *7:17 *7:88 0.0375
50 *7:18 *7:88 0.0332143
51 *7:17 *7:89 0.1215
52 *7:19 *7:89 0.187875
53 *7:18 *7:90 0.137177
54 *7:19 *7:90 0.187875
55 *7:21 *7:91 1.36125
56 *7:22 *7:91 1.36125
57 *7:21 *7:92 0.00334711
58 *7:23 *7:92 0.0245975
59 *7:21 *7:93 0.00334711
60 *7:24 *7:93 0.0644318
61 *7:22 *7:94 0.00334711
62 *7:23 *7:94 0.0245975
63 *7:22 *7:95 0.00334711
64 *7:24 *7:95 0.0644318
65 *7:23 *7:96 0.0245975
66 *7:26 *7:96 0.01575
67 *7:24 *7:97 0.0644318
68 *7:25 *7:97 0.187875
69 *7:27 *7:98 1.36125
70 *7:28 *7:98 1.36125
71 *7:27 *7:99 0.00334711
72 *7:29 *7:99 0.0245975
73 *7:27 *7:100 0.00334711
74 *7:30 *7:100 0.2835
75 *7:28 *7:101 0.00334711
76 *7:29 *7:101 0.0245975
77 *7:28 *7:102 0.00334711
78 *7:30 *7:102 0.2835
79 *7:28 *7:103 0.00334711
80 *7:31 *7:103 0.0833824
81 *7:29 *7:104 0.0245975
82 *7:33 *7:104 0.01575
83 *7:30 *7:105 0.0160714
84 *7:31 *7:105 0.0546429
85 *7:30 *7:106 0.2835
86 *7:32 *7:106 0.187875
87 *7:31 *7:107 0.0833824
88 *7:32 *7:107 0.187875
89 *7:34 *7:108 0.02575
90 *7:35 *7:108 0.975379
91 *7:35 *7:109 0.975379
92 *7:36 *7:109 0.975379
93 *7:36 *7:110 0.975379
94 *7:37 *7:110 0.0413561
95 *7:38 *7:111 0.02575
96 *7:39 *7:111 0.975379
97 *7:39 *7:112 0.975379
98 *7:40 *7:112 0.975379
99 *7:40 *7:113 0.975379
100 *7:41 *7:113 0.0413561
101 *7:42 *7:114 0.02575
102 *7:43 *7:114 0.975379
103 *7:43 *7:115 0.975379
104 *7:44 *7:115 0.975379
105 *7:44 *7:116 0.975379
106 *7:45 *7:116 0.0413561
107 *7:46 *7:117 0.02575
108 *7:47 *7:117 0.975379
109 *7:47 *7:118 0.975379
110 *7:48 *7:118 0.975379
111 *7:48 *7:119 0.975379
112 *7:49 *7:119 0.0413561
113 *7:50 *7:120 0.02575
114 *7:51 *7:120 0.975379
115 *7:51 *7:121 0.975379
116 *7:52 *7:121 0.975379
117 *7:52 *7:122 0.975379
118 *7:53 *7:122 0.0413561
119 *7:54 *7:123 0.0639848
120 *7:55 *7:123 0.702273
121 *7:55 *7:124 0.702273
122 *7:56 *7:124 0.702273
123 *7:56 *7:125 0.702273
124 *7:57 *7:125 0.741288
125 *7:57 *7:126 0.741288
126 *7:58 *7:126 0.741288
127 *7:58 *7:127 0.741288
128 *7:59 *7:127 0.741288
129 *7:59 *7:128 0.741288
130 *7:60 *7:128 0.741288
131 *7:60 *7:129 0.741288
132 *7:61 *7:129 0.702273
133 *7:61 *7:130 0.702273
134 *7:62 *7:130 0.702273
135 *7:62 *7:131 0.702273
136 *7:63 *7:131 0.0608636
137 *7:4 *7:34 20
138 *7:11 *7:38 20
139 *7:17 *7:42 20
140 *7:24 *7:46 20
141 *7:31 *7:50 20
142 *7:37 *7:54 20
143 *7:41 *7:57 20
144 *7:45 *7:58 20
145 *7:49 *7:60 20
146 *7:53 *7:63 20
*END

*D_NET *8 0.678767
*CAP
1 *8 0.041061
2 *8:2 0.0587418
3 *8:3 0.0443919
4 *8:4 0.0219768
5 *8:5 0.0694239
6 *8:6 0.0596365
7 *8:7 0.040656
8 *8:8 0.0257126
9 *8:9 0.0595445
10 *8:10 0.0900639
11 *8:11 0.0554011
12 *8:12 0.0207561
13 *8:13 0.0706448
14 *8:14 0.0207561
*RES
1 *8 *8:15 0.0675
2 *8:6 *8:15 0.015
3 *8:2 *8:16 0.1215
4 *8:6 *8:16 0.015
5 *8:3 *8:17 0.0644318
6 *8:4 *8:17 0.00306818
7 *8:3 *8:18 0.0644318
8 *8:5 *8:18 0.154125
9 *8:5 *8:19 0.029562
10 *8:6 *8:19 0.30375
11 *8:7 *8:20 0.0542045
12 *8:8 *8:20 0.0132955
13 *8:9 *8:21 0.0491591
14 *8:10 *8:21 0.0990985
15 *8:10 *8:22 0.0990985
16 *8:13 *8:22 0.0140455
17 *8:11 *8:23 0.137333
18 *8:12 *8:23 0.0202879
19 *8:11 *8:24 0.0193125
20 *8:13 *8:24 0.0140455
21 *8:12 *8:25 0.130731
22 *8:14 *8:25 0.130731
23 *8:13 *8:26 0.188833
24 *8:14 *8:26 0.0202879
25 *8:3 *8:9 20
26 *8:7 *8:11 20
*END

*D_NET *9 0.657911
*CAP
1 *9 0.041061
2 *9:2 0.0587418
3 *9:3 0.0436447
4 *9:4 0.0227239
5 *9:5 0.0694239
6 *9:6 0.0596365
7 *9:7 0.0455126
8 *9:8 0.0595445
9 *9:9 0.0900639
10 *9:10 0.0276851
11 *9:11 0.0484721
12 *9:12 0.0429289
13 *9:13 0.0484721
*RES
1 *9 *9:14 0.0675
2 *9:6 *9:14 0.015
3 *9:2 *9:15 0.1215
4 *9:6 *9:15 0.015
5 *9:3 *9:16 0.0623864
6 *9:4 *9:16 0.00511364
7 *9:3 *9:17 0.0730328
8 *9:5 *9:17 0.154125
9 *9:4 *9:18 0.891
10 *9:5 *9:18 0.154125
11 *9:5 *9:19 0.029562
12 *9:6 *9:19 0.30375
13 *9:8 *9:20 0.0491591
14 *9:9 *9:20 0.0990985
15 *9:9 *9:21 0.0990985
16 *9:12 *9:21 0.0278607
17 *9:9 *9:22 0.0990985
18 *9:13 *9:22 0.0232808
19 *9:10 *9:23 0.043697
20 *9:11 *9:23 0.113924
21 *9:10 *9:24 0.0606964
22 *9:12 *9:24 0.0278607
23 *9:11 *9:25 0.0232808
24 *9:13 *9:25 0.0232808
25 *9:12 *9:26 0.095197
26 *9:13 *9:26 0.113924
27 *9:3 *9:8 20
28 *9:7 *9:11 20
*END

*D_NET *10 0.657911
*CAP
1 *10 0.041061
2 *10:2 0.0587418
3 *10:3 0.0443919
4 *10:4 0.0219768
5 *10:5 0.0694239
6 *10:6 0.0596365
7 *10:7 0.0455126
8 *10:8 0.0595445
9 *10:9 0.0900639
10 *10:10 0.0461624
11 *10:11 0.0299948
12 *10:12 0.0614062
13 *10:13 0.0299948
*RES
1 *10 *10:14 0.0675
2 *10:6 *10:14 0.015
3 *10:2 *10:15 0.1215
4 *10:6 *10:15 0.015
5 *10:3 *10:16 0.0644318
6 *10:4 *10:16 0.00306818
7 *10:3 *10:17 0.0644318
8 *10:5 *10:17 0.154125
9 *10:5 *10:18 0.029562
10 *10:6 *10:18 0.30375
11 *10:8 *10:19 0.0491591
12 *10:9 *10:19 0.0990985
13 *10:9 *10:20 0.0990985
14 *10:12 *10:20 0.0168267
15 *10:10 *10:21 0.106121
16 *10:11 *10:21 0.0515
17 *10:10 *10:22 0.0249926
18 *10:12 *10:22 0.0168267
19 *10:11 *10:23 0.0515
20 *10:13 *10:23 0.0515
21 *10:12 *10:24 0.157621
22 *10:13 *10:24 0.0515
23 *10:3 *10:8 20
24 *10:7 *10:10 20
*END

*D_NET *11 0.628409
*CAP
1 *11 0.041061
2 *11:2 0.0587418
3 *11:3 0.0443919
4 *11:4 0.0219768
5 *11:5 0.0694239
6 *11:6 0.0596365
7 *11:7 0.0455126
8 *11:8 0.0595445
9 *11:9 0.0900639
10 *11:10 0.0614062
11 *11:11 0.07665
*RES
1 *11 *11:12 0.0675
2 *11:6 *11:12 0.015
3 *11:2 *11:13 0.1215
4 *11:6 *11:13 0.015
5 *11:3 *11:14 0.0644318
6 *11:4 *11:14 0.00306818
7 *11:3 *11:15 0.0644318
8 *11:5 *11:15 0.154125
9 *11:5 *11:16 0.029562
10 *11:6 *11:16 0.30375
11 *11:8 *11:17 0.0491591
12 *11:9 *11:17 0.0990985
13 *11:9 *11:18 0.0990985
14 *11:11 *11:18 0.0126828
15 *11:10 *11:19 0.0168267
16 *11:11 *11:19 0.0126828
17 *11:3 *11:8 20
18 *11:7 *11:10 20
*END

*D_NET *12 0.637055
*CAP
1 *12 0.041061
2 *12:2 0.0587418
3 *12:3 0.0455126
4 *12:4 0.069424
5 *12:5 0.0596365
6 *12:6 0.0455126
7 *12:7 0.0595445
8 *12:8 0.0900639
9 *12:9 0.0369238
10 *12:10 0.0392334
11 *12:11 0.0521675
12 *12:12 0.0392334
*RES
1 *12 *12:13 0.0675
2 *12:5 *12:13 0.015
3 *12:2 *12:14 0.1215
4 *12:5 *12:14 0.015
5 *12:3 *12:15 0.0675
6 *12:4 *12:15 0.154125
7 *12:4 *12:16 0.029562
8 *12:5 *12:16 0.30375
9 *12:7 *12:17 0.0491591
10 *12:8 *12:17 0.0990985
11 *12:8 *12:18 0.0990985
12 *12:11 *12:18 0.0209815
13 *12:9 *12:19 0.0749091
14 *12:10 *12:19 0.0827121
15 *12:9 *12:20 0.0354062
16 *12:11 *12:20 0.0209815
17 *12:10 *12:21 0.032066
18 *12:12 *12:21 0.032066
19 *12:11 *12:22 0.126409
20 *12:12 *12:22 0.0827121
21 *12:3 *12:7 20
22 *12:6 *12:10 20
*END

*D_NET *13 1.14806
*CAP
1 *13 0.198346
2 *13:2 0.0283277
3 *13:3 0.0380409
4 *13:4 0.0362725
5 *13:5 0.419356
6 *13:6 0.040656
7 *13:7 0.0257126
8 *13:8 0.0362724
9 *13:9 0.0357012
10 *13:10 0.0357012
11 *13:11 0.027182
12 *13:12 0.136015
13 *13:13 0.0547758
14 *13:14 0.0357012
*RES
1 *13 *13:15 0.547875
2 *13:2 *13:15 0.22275
3 *13 *13:16 0.547875
4 *13:3 *13:16 0.0968478
5 *13:2 *13:17 0.0204545
6 *13:3 *13:17 0.0470455
7 *13:2 *13:18 0.22275
8 *13:4 *13:18 0.052875
9 *13:3 *13:19 0.0968478
10 *13:4 *13:19 0.052875
11 *13:5 *13:20 1.22288
12 *13:7 *13:20 0.0132955
13 *13:6 *13:21 0.0542045
14 *13:7 *13:21 0.0132955
15 *13:6 *13:22 0.0542045
16 *13:8 *13:22 0.052875
17 *13:9 *13:23 0.0101439
18 *13:11 *13:23 0.103
19 *13:9 *13:24 0.0101439
20 *13:12 *13:24 0.00811024
21 *13:10 *13:25 0.0101439
22 *13:11 *13:25 0.103
23 *13:10 *13:26 0.0101439
24 *13:12 *13:26 0.00811024
25 *13:11 *13:27 0.02575
26 *13:12 *13:27 0.327025
27 *13:12 *13:28 0.327025
28 *13:13 *13:28 0.0641321
29 *13:13 *13:29 0.0413561
30 *13:14 *13:29 0.0101439
31 *13:3 *13:12 20
32 *13:6 *13:13 20
*END

*D_NET *14 15.2638
*CAP
1 *14 0.0804745
2 *14:2 0.0331843
3 *14:3 0.0331843
4 *14:4 0.375154
5 *14:5 0.0510065
6 *14:6 0.0339315
7 *14:7 0.0324371
8 *14:8 0.359131
9 *14:9 0.359131
10 *14:10 0.0510065
11 *14:11 0.0455126
12 *14:12 0.359131
13 *14:13 0.359131
14 *14:14 0.0510065
15 *14:15 0.040656
16 *14:16 0.0257126
17 *14:17 0.359131
18 *14:18 0.359131
19 *14:19 0.0510064
20 *14:20 0.040656
21 *14:21 0.0257126
22 *14:22 0.359131
23 *14:23 0.359131
24 *14:24 0.0510065
25 *14:25 0.0455126
26 *14:26 0.359131
27 *14:27 0.359131
28 *14:28 0.474241
29 *14:29 0.096818
30 *14:30 0.474241
31 *14:31 0.096818
32 *14:32 0.474241
33 *14:33 0.096818
34 *14:34 0.474241
35 *14:35 0.096818
36 *14:36 0.474241
37 *14:37 0.096818
38 *14:38 0.599496
39 *14:39 0.378052
40 *14:40 0.378052
41 *14:41 0.359285
42 *14:42 0.359285
43 *14:43 0.378052
44 *14:44 0.378052
45 *14:45 0.359285
46 *14:46 0.359285
47 *14:47 0.471884
48 *14:48 0.17162
49 *14:49 0.319165
50 *14:50 0.319165
51 *14:51 0.0211701
52 *14:52 0.096818
53 *14:53 0.0461923
54 *14:54 0.0442848
55 *14:55 0.197874
56 *14:56 0.0211357
57 *14:57 0.0461923
58 *14:58 0.0442848
59 *14:59 0.0609751
60 *14:60 0.197874
61 *14:61 0.0211357
62 *14:62 0.0609751
63 *14:63 0.0609751
64 *14:64 0.197874
65 *14:65 0.0211357
66 *14:66 0.0547758
67 *14:67 0.0357012
68 *14:68 0.0609751
69 *14:69 0.197874
70 *14:70 0.0211357
71 *14:71 0.0547758
72 *14:72 0.0357012
73 *14:73 0.0609751
74 *14:74 0.197874
75 *14:75 0.0211357
76 *14:76 0.0609751
77 *14:77 0.0357012
78 *14:78 0.639889
79 *14:79 0.0643131
80 *14:80 0.0332283
81 *14:81 0.0267612
82 *14:82 0.0668583
83 *14:83 0.027182
84 *14:84 0.0846443
*RES
1 *14 *14:85 0.187875
2 *14:3 *14:85 0.03375
3 *14:2 *14:86 0.03375
4 *14:3 *14:86 0.03375
5 *14:2 *14:87 0.03375
6 *14:4 *14:87 1.08787
7 *14:5 *14:88 0.097875
8 *14:6 *14:88 0.127286
9 *14:5 *14:89 0.097875
10 *14:7 *14:89 0.14371
11 *14:6 *14:90 0.0357955
12 *14:7 *14:90 0.0317045
13 *14:6 *14:91 0.127286
14 *14:9 *14:91 1.03894
15 *14:7 *14:92 0.14371
16 *14:9 *14:92 1.03894
17 *14:8 *14:93 1.03894
18 *14:9 *14:93 1.03894
19 *14:10 *14:94 0.097875
20 *14:11 *14:94 0.0675
21 *14:11 *14:95 0.0675
22 *14:13 *14:95 1.03894
23 *14:12 *14:96 1.03894
24 *14:13 *14:96 1.03894
25 *14:14 *14:97 0.097875
26 *14:16 *14:97 0.0132955
27 *14:15 *14:98 0.0542045
28 *14:16 *14:98 0.0132955
29 *14:15 *14:99 0.0542045
30 *14:18 *14:99 1.03894
31 *14:17 *14:100 1.03894
32 *14:18 *14:100 1.03894
33 *14:19 *14:101 0.097875
34 *14:21 *14:101 0.0132955
35 *14:20 *14:102 0.0542045
36 *14:21 *14:102 0.0132955
37 *14:20 *14:103 0.0542045
38 *14:23 *14:103 1.03894